@<TRIPOS>MOLECULE
./1znz/protein.pdb
 229 225 0 0 0
SMALL
GASTEIGER

@<TRIPOS>ATOM
      1 N          23.3660   10.9810   42.6620 N.3     1  LYS1       -0.1231
      2 CA         22.9110    9.9010   43.5250 C.3     1  LYS1        0.1693
      3 C          24.0470    8.9170   43.7770 C.2     1  LYS1        0.2592
      4 O          23.8140    7.8350   44.2960 O.2     1  LYS1       -0.2718
      5 CB         21.7230    9.1730   42.8780 C.3     1  LYS1        0.0285
      6 CG         20.3570    9.9100   43.0930 C.3     1  LYS1        0.0035
      7 CD         19.3670    9.7740   41.8990 C.3     1  LYS1        0.0206
      8 CE         18.4490   11.0110   41.7590 C.3     1  LYS1        0.1093
      9 NZ         18.8460   11.8390   40.5720 N.3     1  LYS1       -0.1314
     10 N          25.2750    9.3100   43.4350 N.am    2  SER2       -0.1952
     11 CA         26.4200    8.4180   43.5200 C.3     2  SER2        0.1924
     12 C          26.7300    8.0420   44.9850 C.2     2  SER2        0.2314
     13 O          27.1620    6.9130   45.2730 O.2     2  SER2       -0.2863
     14 CB         27.6370    9.0480   42.8480 C.3     2  SER2        0.2116
     15 OG         28.2060   10.0300   43.6990 O.3     2  SER2       -0.2180
     16 N          24.0600    5.3570   45.8970 N.3     1  VAL1       -0.1245
     17 CA         24.5800    4.1520   45.2520 C.3     1  VAL1        0.1561
     18 C          25.7640    3.5710   46.0170 C.2     1  VAL1        0.2260
     19 O          25.8210    2.3910   46.2750 O.2     1  VAL1       -0.2867
     20 CB         25.0050    4.4280   43.7720 C.3     1  VAL1        0.0252
     21 CG2        25.8060    3.2580   43.1920 C.3     1  VAL1        0.0019
     22 CG1        23.7560    4.6960   42.8870 C.3     1  VAL1        0.0019
     23 N          25.8670   -0.2480   48.0330 N.3     1  ARG1       -0.1245
     24 CA         26.8430   -1.2640   47.6360 C.3     1  ARG1        0.1563
     25 C          27.6520   -1.7370   48.8360 C.2     1  ARG1        0.2260
     26 O          28.1850   -2.8620   48.8550 O.2     1  ARG1       -0.2867
     27 CB         27.7680   -0.6750   46.5710 C.3     1  ARG1        0.0307
     28 CG         26.9930   -0.3730   45.3150 C.3     1  ARG1        0.0489
     29 CD         27.8070    0.1100   44.1410 C.3     1  ARG1        0.2205
     30 NE         28.4920   -1.0140   43.5190 N.pl3   1  ARG1       -0.0865
     31 CZ         29.4270   -0.8910   42.5800 C.cat   1  ARG1        0.5346
     32 NH1        29.7600    0.2970   42.0860 N.pl3   1  ARG1        0.1354
     33 NH2        30.0060   -1.9750   42.1020 N.pl3   1  ARG1        0.1354
     34 N          25.4560   -3.6740   40.6870 N.3     1  PHE1       -0.1227
     35 CA         25.2150   -2.4110   40.0590 C.3     1  PHE1        0.1736
     36 C          25.4490   -2.5480   38.5460 C.2     1  PHE1        0.2596
     37 O          26.5360   -2.8660   38.0640 O.2     1  PHE1       -0.2718
     38 CB         26.0960   -1.3580   40.6990 C.3     1  PHE1        0.0547
     39 CG         25.7940    0.0050   40.2400 C.ar    1  PHE1       -0.0202
     40 CD2        24.5060    0.5100   40.3460 C.ar    1  PHE1       -0.0042
     41 CD1        26.7900    0.7870   39.6480 C.ar    1  PHE1       -0.0042
     42 CE2        24.1990    1.7870   39.8710 C.ar    1  PHE1       -0.0003
     43 CE1        26.4980    2.0860   39.1870 C.ar    1  PHE1       -0.0003
     44 CZ         25.1910    2.5810   39.2900 C.ar    1  PHE1       -0.0000
     45 N          24.3690   -2.3470   37.8230 N.am    2  SER2       -0.1938
     46 CA         24.3340   -2.4200   36.3670 C.3     2  SER2        0.2055
     47 C          25.4870   -1.6430   35.7040 C.2     2  SER2        0.2643
     48 O          25.6670   -0.4560   35.9500 O.2     2  SER2       -0.2714
     49 CB         22.9660   -1.8860   35.8470 C.3     2  SER2        0.2130
     50 OG         22.7720   -2.3040   34.5140 O.3     2  SER2       -0.2179
     51 N          26.2430   -2.3470   34.8720 N.am    3  VAL3       -0.1963
     52 CA         27.3130   -1.8000   34.0690 C.3     3  VAL3        0.1727
     53 C          26.7370   -1.4180   32.6930 C.2     3  VAL3        0.2617
     54 O          26.4280   -2.2920   31.8750 O.2     3  VAL3       -0.2715
     55 CB         28.3970   -2.8720   33.8770 C.3     3  VAL3        0.0290
     56 CG1        29.5400   -2.3360   33.0220 C.3     3  VAL3        0.0023
     57 CG2        28.8610   -3.4000   35.2210 C.3     3  VAL3        0.0023
     58 N          26.5680   -0.1230   32.4410 N.am    4  SER4       -0.1936
     59 CA         25.9470    0.3120   31.1960 C.3     4  SER4        0.2055
     60 C          26.8470   -0.0240   30.0140 C.2     4  SER4        0.2643
     61 O          28.0670   -0.0470   30.1540 O.2     4  SER4       -0.2714
     62 CB         25.6920    1.8180   31.2160 C.3     4  SER4        0.2130
     63 OG         24.7800    2.1390   32.2320 O.3     4  SER4       -0.2179
     64 N          26.2450   -0.2970   28.8580 N.am    5  ALA5       -0.1963
     65 CA         26.9880   -0.3370   27.6000 C.3     5  ALA5        0.1728
     66 C          27.1600    1.0790   27.0620 C.2     5  ALA5        0.2616
     67 O          26.3700    1.9510   27.3780 O.2     5  ALA5       -0.2715
     68 CB         26.3050   -1.2170   26.5930 C.3     5  ALA5        0.0334
     69 N          28.2340    1.3180   26.3010 N.am    6  THR6       -0.1951
     70 CA         28.4550    2.6290   25.7080 C.3     6  THR6        0.1897
     71 C          29.2960    2.4830   24.4710 C.2     6  THR6        0.2313
     72 O          30.0160    1.4940   24.2980 O.2     6  THR6       -0.2863
     73 CB         29.1040    3.6040   26.7570 C.3     6  THR6        0.1794
     74 OG1        29.2660    4.9230   26.2210 O.3     6  THR6       -0.2208
     75 CG2        30.5190    3.1610   27.1350 C.3     6  THR6        0.0378
     76 N          33.4110   -3.4720   34.0320 N.3     1  VAL1       -0.1231
     77 CA         33.2710   -2.8350   35.3540 C.3     1  VAL1        0.1692
     78 C          32.6570   -1.4460   35.2200 C.2     1  VAL1        0.2592
     79 O          31.5190   -1.2500   35.6210 O.2     1  VAL1       -0.2718
     80 CB         34.5920   -2.8410   36.1160 C.3     1  VAL1        0.0266
     81 CG2        34.4990   -2.0990   37.4610 C.3     1  VAL1        0.0020
     82 CG1        34.9860   -4.2840   36.3810 C.3     1  VAL1        0.0020
     83 N          33.3660   -0.4990   34.6260 N.am    2  ASP2       -0.1962
     84 CA         32.8340    0.8660   34.4840 C.3     2  ASP2        0.1783
     85 C          31.7900    0.9860   33.4000 C.2     2  ASP2        0.2620
     86 O          30.7810    1.6050   33.6060 O.2     2  ASP2       -0.2715
     87 CB         33.9590    1.8330   34.2610 C.3     2  ASP2        0.0728
     88 CG         34.9460    1.7970   35.3860 C.2     2  ASP2        0.0526
     89 OD2        34.6970    2.4640   36.4020 O.co2   2  ASP2       -0.5491
     90 OD1        35.9510    1.0790   35.3770 O.co2   2  ASP2       -0.5491
     91 N          32.0760    0.3820   32.2590 N.am    3  TYR3       -0.1974
     92 CA         31.1360    0.2130   31.1480 C.3     3  TYR3        0.1639
     93 C          31.4390   -1.1250   30.4290 C.2     3  TYR3        0.2290
     94 O          32.4310   -1.7930   30.6720 O.2     3  TYR3       -0.2864
     95 CB         31.2160    1.3980   30.1140 C.3     3  TYR3        0.0560
     96 CG         30.6230    2.7040   30.6040 C.ar    3  TYR3       -0.0198
     97 CD1        29.2890    3.0280   30.3610 C.ar    3  TYR3       -0.0009
     98 CD2        31.3740    3.5930   31.3510 C.ar    3  TYR3       -0.0009
     99 CE1        28.7370    4.2020   30.8400 C.ar    3  TYR3        0.0417
    100 CE2        30.8150    4.7540   31.8550 C.ar    3  TYR3        0.0417
    101 CZ         29.5030    5.0600   31.5920 C.ar    3  TYR3        0.1957
    102 OH         28.9690    6.2410   32.0760 O.3     3  TYR3       -0.2866
    103 N          16.8960    0.0010   27.9500 N.3     1  GLU1       -0.1231
    104 CA         16.7910    1.4020   27.5580 C.3     1  GLU1        0.1697
    105 C          18.0810    1.8340   26.9320 C.2     1  GLU1        0.2592
    106 O          19.1380    1.2530   27.2120 O.2     1  GLU1       -0.2718
    107 CB         16.4880    2.3130   28.7710 C.3     1  GLU1        0.0343
    108 CG         17.4940    2.2830   29.9100 C.3     1  GLU1        0.0437
    109 CD         18.7040    3.1890   29.7250 C.2     1  GLU1        0.0504
    110 OE2        19.8100    2.8400   30.2840 O.co2   1  GLU1       -0.5492
    111 OE1        18.5470    4.2520   29.0450 O.co2   1  GLU1       -0.5492
    112 N          18.0150    2.8530   26.0830 N.am    2  TRP2       -0.1962
    113 CA         19.2590    3.5130   25.6400 C.3     2  TRP2        0.1768
    114 C          19.0120    4.9660   25.2760 C.2     2  TRP2        0.2619
    115 O          17.8570    5.4130   25.2820 O.2     2  TRP2       -0.2715
    116 CB         19.9260    2.7640   24.4860 C.3     2  TRP2        0.0551
    117 CG         19.0920    2.7420   23.3020 C.2     2  TRP2       -0.0165
    118 CD1        18.0910    1.8670   23.0400 C.3     2  TRP2        0.1477
    119 CD2        19.1320    3.6610   22.2010 C.ar    2  TRP2        0.0113
    120 NE1        17.4970    2.1770   21.8410 N.2     2  TRP2       -0.2659
    121 CE2        18.1240    3.2650   21.2940 C.ar    2  TRP2        0.0758
    122 CE3        19.9330    4.7630   21.8720 C.ar    2  TRP2        0.0009
    123 CZ2        17.8830    3.9430   20.0790 C.ar    2  TRP2        0.0187
    124 CZ3        19.6910    5.4370   20.6810 C.ar    2  TRP2        0.0001
    125 CH2        18.6800    5.0180   19.7950 C.ar    2  TRP2        0.0015
    126 N          20.0790    5.7160   25.0100 N.am    3  ALA3       -0.1963
    127 CA         19.9040    7.1110   24.6030 C.3     3  ALA3        0.1728
    128 C          21.0950    7.6340   23.8530 C.2     3  ALA3        0.2616
    129 O          22.1710    7.0770   23.9150 O.2     3  ALA3       -0.2715
    130 CB         19.5820    8.0420   25.8410 C.3     3  ALA3        0.0334
    131 N          20.8680    8.7150   23.1340 N.am    4  GLU4       -0.1963
    132 CA         21.9260    9.4470   22.4760 C.3     4  GLU4        0.1731
    133 C          22.5680   10.3220   23.5370 C.2     4  GLU4        0.2616
    134 O          21.8680   11.0020   24.2870 O.2     4  GLU4       -0.2715
    135 CB         21.3830   10.3300   21.3320 C.3     4  GLU4        0.0370
    136 CG         20.5400    9.6130   20.2640 C.3     4  GLU4        0.0440
    137 CD         21.3310    8.7760   19.2250 C.2     4  GLU4        0.0504
    138 OE2        22.6060    8.6450   19.3010 O.co2   4  GLU4       -0.5492
    139 OE1        20.6370    8.2260   18.3150 O.co2   4  GLU4       -0.5492
    140 N          23.8970   10.2980   23.5810 N.am    5  ILE5       -0.1977
    141 CA         24.6380   11.0490   24.5640 C.3     5  ILE5        0.1596
    142 C          25.3050   12.2450   23.9060 C.2     5  ILE5        0.2287
    143 O          25.9570   12.0970   22.8980 O.2     5  ILE5       -0.2864
    144 CB         25.6770   10.1550   25.2900 C.3     5  ILE5        0.0276
    145 CG1        25.0200    8.8930   25.8840 C.3     5  ILE5        0.0022
    146 CG2        26.3240   10.9210   26.4130 C.3     5  ILE5        0.0022
    147 CD1        23.8510    9.1990   26.8720 C.3     5  ILE5        0.0001
    148 N          27.7790    9.8660   21.0310 N.3     1  HIS1       -0.1226
    149 CA         27.7450    8.4190   21.1950 C.3     1  HIS1        0.1752
    150 C          26.4430    7.9610   21.8650 C.2     1  HIS1        0.2596
    151 O          25.5250    8.7470   22.0640 O.2     1  HIS1       -0.2718
    152 CB         29.0000    7.9600   21.9440 C.3     1  HIS1        0.0759
    153 CG         29.0670    8.4060   23.3660 C.ar    1  HIS1        0.0818
    154 ND1        28.4130    7.7430   24.3790 N.ar    1  HIS1       -0.2268
    155 CD2        29.7650    9.4040   23.9570 C.ar    1  HIS1        0.1154
    156 CE1        28.6560    8.3510   25.5280 C.ar    1  HIS1        0.1986
    157 NE2        29.4830    9.3580   25.3020 N.ar    1  HIS1       -0.2212
    158 N          26.3720    6.6770   22.1980 N.am    2  ARG2       -0.1966
    159 CA         25.2220    6.1040   22.8860 C.3     2  ARG2        0.1729
    160 C          25.5930    5.3800   24.1600 C.2     2  ARG2        0.2617
    161 O          26.7180    4.9090   24.3080 O.2     2  ARG2       -0.2715
    162 CB         24.5300    5.1300   21.9660 C.3     2  ARG2        0.0348
    163 CG         23.9670    5.8190   20.7640 C.3     2  ARG2        0.0492
    164 CD         23.5820    4.8730   19.6730 C.3     2  ARG2        0.2205
    165 NE         22.7270    5.5340   18.7140 N.pl3   2  ARG2       -0.0865
    166 CZ         22.2450    4.9380   17.6400 C.cat   2  ARG2        0.5346
    167 NH2        22.5370    3.6690   17.3810 N.pl3   2  ARG2        0.1354
    168 NH1        21.4590    5.6090   16.8140 N.pl3   2  ARG2        0.1354
    169 N          24.6410    5.3270   25.0980 N.am    3  SER3       -0.1936
    170 CA         24.7840    4.5040   26.2950 C.3     3  SER3        0.2055
    171 C          23.4560    3.8850   26.6570 C.2     3  SER3        0.2644
    172 O          22.4070    4.3480   26.2460 O.2     3  SER3       -0.2714
    173 CB         25.3190    5.3090   27.4710 C.3     3  SER3        0.2130
    174 OG         26.6430    5.7610   27.2240 O.3     3  SER3       -0.2179
    175 N          23.5020    2.8310   27.4530 N.am    4  GLY4       -0.1939
    176 CA         22.2780    2.1930   27.8620 C.3     4  GLY4        0.2014
    177 C          22.4600    0.9280   28.6500 C.2     4  GLY4        0.2639
    178 O          23.5790    0.4560   28.8830 O.2     4  GLY4       -0.2714
    179 N          21.3190    0.3790   29.0380 N.am    5  THR5       -0.1950
    180 CA         21.2440   -0.7740   29.9090 C.3     5  THR5        0.1897
    181 C          20.9830   -2.0640   29.1410 C.2     5  THR5        0.2313
    182 O          19.9600   -2.1980   28.4670 O.2     5  THR5       -0.2863
    183 CB         20.1420   -0.5360   30.9610 C.3     5  THR5        0.1794
    184 OG1        20.4940    0.6060   31.7650 O.3     5  THR5       -0.2208
    185 CG2        20.0960   -1.6980   31.9430 C.3     5  THR5        0.0378
    186 N          20.6800   -3.2710   41.1400 N.3     1  LEU1       -0.1231
    187 CA         20.3880   -1.8600   41.0730 C.3     1  LEU1        0.1693
    188 C          20.8310   -1.2340   39.7210 C.2     1  LEU1        0.2592
    189 O          21.9920   -1.3470   39.2960 O.2     1  LEU1       -0.2718
    190 CB         21.1410   -1.1560   42.2020 C.3     1  LEU1        0.0284
    191 CG         20.8610    0.3430   42.3280 C.3     1  LEU1        0.0019
    192 CD1        19.4760    0.5970   42.8030 C.3     1  LEU1        0.0001
    193 CD2        21.9130    1.0040   43.2740 C.3     1  LEU1        0.0001
    194 N          19.8730   -0.5660   39.0830 N.am    2  ILE2       -0.1966
    195 CA         20.0520    0.2660   37.9080 C.3     2  ILE2        0.1727
    196 C          19.7910    1.6980   38.3130 C.2     2  ILE2        0.2616
    197 O          18.8230    1.9680   38.9810 O.2     2  ILE2       -0.2715
    198 CB         19.0620   -0.1320   36.8190 C.3     2  ILE2        0.0290
    199 CG1        19.2590   -1.6250   36.4460 C.3     2  ILE2        0.0022
    200 CG2        19.2180    0.7950   35.5770 C.3     2  ILE2        0.0023
    201 CD1        18.0800   -2.2300   35.7280 C.3     2  ILE2        0.0001
    202 N          20.7020    2.5990   37.9640 N.am    3  GLU3       -0.1963
    203 CA         20.5610    4.0040   38.2490 C.3     3  GLU3        0.1731
    204 C          20.5560    4.6600   36.9020 C.2     3  GLU3        0.2616
    205 O          21.5630    4.6010   36.1930 O.2     3  GLU3       -0.2715
    206 CB         21.7590    4.5390   39.0630 C.3     3  GLU3        0.0370
    207 CG         21.5450    5.9300   39.6980 C.3     3  GLU3        0.0440
    208 CD         21.9550    7.1190   38.8370 C.2     3  GLU3        0.0504
    209 OE1        23.0890    7.1180   38.3040 O.co2   3  GLU3       -0.5492
    210 OE2        21.1260    8.0640   38.6760 O.co2   3  GLU3       -0.5492
    211 N          19.4390    5.2710   36.5450 N.am    4  VAL4       -0.1963
    212 CA         19.2940    5.9840   35.2710 C.3     4  VAL4        0.1727
    213 C          18.4930    7.2410   35.4680 C.2     4  VAL4        0.2616
    214 O          17.8070    7.3770   36.4870 O.2     4  VAL4       -0.2715
    215 CB         18.4750    5.1540   34.2170 C.3     4  VAL4        0.0290
    216 CG1        19.3690    4.2100   33.4800 C.3     4  VAL4        0.0023
    217 CG2        17.2820    4.4360   34.8720 C.3     4  VAL4        0.0023
    218 N          18.5480    8.1200   34.4600 N.am    5  ASP5       -0.1973
    219 CA         17.6230    9.2520   34.3550 C.3     5  ASP5        0.1651
    220 C          16.1740    8.8030   34.1370 C.2     5  ASP5        0.2291
    221 O          15.8770    7.6240   33.9600 O.2     5  ASP5       -0.2864
    222 CB         18.0890   10.3290   33.3220 C.3     5  ASP5        0.0714
    223 CG         18.1530    9.8230   31.8520 C.2     5  ASP5        0.0525
    224 OD2        17.4760    8.8150   31.5050 O.co2   5  ASP5       -0.5491
    225 OD1        18.8500   10.4180   30.9700 O.co2   5  ASP5       -0.5491
    226 N          15.0180    6.9960   31.0870 N.3     1  GLY1       -0.1225
    227 CA         15.5540    5.6540   31.0880 C.3     1  GLY1        0.1811
    228 C          14.7360    4.6930   31.9300 C.2     1  GLY1        0.2280
    229 O          14.5130    3.5770   31.5030 O.2     1  GLY1       -0.2866
@<TRIPOS>UNITY_ATOM_ATTR
89 1
charge -1
110 1
charge -1
138 1
charge -1
209 1
charge -1
224 1
charge -1
@<TRIPOS>BOND
     1     1     2    1
     2     2     5    1
     3     2     3    1
     4     3    10   am
     5     3     4    2
     6     5     6    1
     7     6     7    1
     8     7     8    1
     9     8     9    1
    10    10    11    1
    11    11    14    1
    12    11    12    1
    13    12    13    2
    14    14    15    1
    15    16    17    1
    16    17    20    1
    17    17    18    1
    18    18    19    2
    19    20    22    1
    20    20    21    1
    21    23    24    1
    22    24    27    1
    23    24    25    1
    24    25    26    2
    25    27    28    1
    26    28    29    1
    27    29    30    1
    28    30    31    2
    29    31    32    1
    30    31    33    1
    31    34    35    1
    32    35    36    1
    33    35    38    1
    34    36    45   am
    35    36    37    2
    36    38    39    1
    37    39    41   ar
    38    39    40   ar
    39    40    42   ar
    40    41    43   ar
    41    42    44   ar
    42    43    44   ar
    43    45    46    1
    44    46    47    1
    45    46    49    1
    46    47    51   am
    47    47    48    2
    48    49    50    1
    49    51    52    1
    50    52    53    1
    51    52    55    1
    52    53    54    2
    53    53    58   am
    54    55    56    1
    55    55    57    1
    56    58    59    1
    57    59    60    1
    58    59    62    1
    59    60    64   am
    60    60    61    2
    61    62    63    1
    62    64    65    1
    63    65    68    1
    64    65    66    1
    65    66    69   am
    66    66    67    2
    67    69    70    1
    68    70    71    1
    69    70    73    1
    70    71    72    2
    71    73    74    1
    72    73    75    1
    73    76    77    1
    74    77    78    1
    75    77    80    1
    76    78    83   am
    77    78    79    2
    78    80    82    1
    79    80    81    1
    80    83    84    1
    81    84    85    1
    82    84    87    1
    83    85    91   am
    84    85    86    2
    85    87    88    1
    86    88    90   ar
    87    88    89   ar
    88    91    92    1
    89    92    95    1
    90    92    93    1
    91    93    94    2
    92    95    96    1
    93    96    97   ar
    94    96    98   ar
    95    97    99   ar
    96    98   100   ar
    97    99   101   ar
    98   100   101   ar
    99   101   102    1
   100   103   104    1
   101   104   105    1
   102   104   107    1
   103   105   112   am
   104   105   106    2
   105   107   108    1
   106   108   109    1
   107   109   111   ar
   108   109   110   ar
   109   112   113    1
   110   113   116    1
   111   113   114    1
   112   114   126   am
   113   114   115    2
   114   116   117    1
   115   117   119    2
   116   117   118    1
   117   118   120    1
   118   119   121   ar
   119   119   122   ar
   120   120   121    2
   121   121   123   ar
   122   122   124   ar
   123   123   125   ar
   124   124   125   ar
   125   126   127    1
   126   127   128    1
   127   127   130    1
   128   128   131   am
   129   128   129    2
   130   131   132    1
   131   132   135    1
   132   132   133    1
   133   133   140   am
   134   133   134    2
   135   135   136    1
   136   136   137    1
   137   137   139   ar
   138   137   138   ar
   139   140   141    1
   140   141   142    1
   141   141   144    1
   142   142   143    2
   143   144   145    1
   144   144   146    1
   145   145   147    1
   146   148   149    1
   147   149   150    1
   148   149   152    1
   149   150   151    2
   150   150   158   am
   151   152   153    1
   152   153   155   ar
   153   153   154   ar
   154   154   156   ar
   155   155   157   ar
   156   156   157   ar
   157   158   159    1
   158   159   162    1
   159   159   160    1
   160   160   161    2
   161   160   169   am
   162   162   163    1
   163   163   164    1
   164   164   165    1
   165   165   166    2
   166   166   168    1
   167   166   167    1
   168   169   170    1
   169   170   171    1
   170   170   173    1
   171   171   172    2
   172   171   175   am
   173   173   174    1
   174   175   176    1
   175   176   177    1
   176   177   178    2
   177   177   179   am
   178   179   180    1
   179   180   181    1
   180   180   183    1
   181   181   182    2
   182   183   184    1
   183   183   185    1
   184   186   187    1
   185   187   188    1
   186   187   190    1
   187   188   194   am
   188   188   189    2
   189   190   191    1
   190   191   192    1
   191   191   193    1
   192   194   195    1
   193   195   198    1
   194   195   196    1
   195   196   202   am
   196   196   197    2
   197   198   200    1
   198   198   199    1
   199   199   201    1
   200   202   203    1
   201   203   204    1
   202   203   206    1
   203   204   205    2
   204   204   211   am
   205   206   207    1
   206   207   208    1
   207   208   209   ar
   208   208   210   ar
   209   211   212    1
   210   212   215    1
   211   212   213    1
   212   213   218   am
   213   213   214    2
   214   215   216    1
   215   215   217    1
   216   218   219    1
   217   219   222    1
   218   219   220    1
   219   220   221    2
   220   222   223    1
   221   223   225   ar
   222   223   224   ar
   223   226   227    1
   224   227   228    1
   225   228   229    2
