@<TRIPOS>MOLECULE
./3h72/protein.pdb
 288 277 0 0 0
SMALL
GASTEIGER

@<TRIPOS>ATOM
      1 N         113.9570    2.4780   37.7890 N.3     1  ARG1       -0.1231
      2 CA        113.0220    3.4940   38.2570 C.3     1  ARG1        0.1694
      3 C         111.9210    2.8530   39.0750 C.2     1  ARG1        0.2591
      4 O         111.8030    1.6320   39.1300 O.2     1  ARG1       -0.2718
      5 CB        112.3640    4.2430   37.0880 C.3     1  ARG1        0.0321
      6 CG        113.2300    5.2640   36.3620 C.3     1  ARG1        0.0489
      7 CD        112.3640    6.4110   35.8460 C.3     1  ARG1        0.2205
      8 NE        111.7610    7.1370   36.9660 N.pl3   1  ARG1       -0.0865
      9 CZ        110.8230    8.0740   36.8540 C.cat   1  ARG1        0.5346
     10 NH1       110.3530    8.4220   35.6630 N.pl3   1  ARG1        0.1354
     11 NH2       110.3590    8.6750   37.9450 N.pl3   1  ARG1        0.1354
     12 N         111.1350    3.7080   39.7210 N.am    2  ILE2       -0.1980
     13 CA        109.9700    3.3070   40.4910 C.3     2  ILE2        0.1595
     14 C         110.2230    2.3400   41.6370 C.2     2  ILE2        0.2287
     15 O         109.8790    1.1590   41.5670 O.2     2  ILE2       -0.2864
     16 CB        108.9100    2.7110   39.5400 C.3     2  ILE2        0.0276
     17 CG1       108.9460    3.4460   38.1920 C.3     2  ILE2        0.0022
     18 CG2       107.5340    2.8430   40.1530 C.3     2  ILE2        0.0022
     19 CD1       108.8300    4.9620   38.3000 C.3     2  ILE2        0.0001
     20 N         114.5000   -0.9750   33.5390 N.3     1  ARG1       -0.1245
     21 CA        114.3580   -0.4050   32.1920 C.3     1  ARG1        0.1563
     22 C         115.6440   -0.5320   31.3830 C.2     1  ARG1        0.2260
     23 O         116.5250    0.3210   31.4410 O.2     1  ARG1       -0.2867
     24 CB        113.9410    1.0630   32.3210 C.3     1  ARG1        0.0307
     25 CG        112.7500    1.2320   33.2560 C.3     1  ARG1        0.0489
     26 CD        112.1240    2.6100   33.1620 C.3     1  ARG1        0.2205
     27 NE        110.8800    2.6620   33.9270 N.pl3   1  ARG1       -0.0865
     28 CZ        110.0620    3.7080   33.9680 C.cat   1  ARG1        0.5346
     29 NH1       110.3510    4.8080   33.2830 N.pl3   1  ARG1        0.1354
     30 NH2       108.9530    3.6490   34.6980 N.pl3   1  ARG1        0.1354
     31 N         115.3560    5.3650   29.7920 N.3     1  SER1       -0.1202
     32 CA        114.6250    5.7210   31.0030 C.3     1  SER1        0.2020
     33 C         113.1470    6.0310   30.8020 C.2     1  SER1        0.2619
     34 O         112.4400    6.3040   31.7700 O.2     1  SER1       -0.2717
     35 CB        115.2830    6.9380   31.6690 C.3     1  SER1        0.2103
     36 OG        116.6500    6.7050   31.9610 O.3     1  SER1       -0.2182
     37 N         112.6710    5.9950   29.5620 N.am    2  SER2       -0.1937
     38 CA        111.2770    6.3330   29.3070 C.3     2  SER2        0.2055
     39 C         110.2570    5.3170   29.8170 C.2     2  SER2        0.2643
     40 O         110.5890    4.1640   30.1050 O.2     2  SER2       -0.2714
     41 CB        111.0810    6.6130   27.8150 C.3     2  SER2        0.2130
     42 OG        111.8780    7.7270   27.4310 O.3     2  SER2       -0.2179
     43 N         109.0070    5.7610   29.9050 N.am    3  ASP3       -0.1959
     44 CA        107.9090    4.9440   30.4220 C.3     3  ASP3        0.1783
     45 C         107.3330    3.9040   29.4760 C.2     3  ASP3        0.2620
     46 O         106.1120    3.7740   29.3390 O.2     3  ASP3       -0.2715
     47 CB        106.7870    5.8520   30.9090 C.3     3  ASP3        0.0728
     48 CG        107.2630    6.8700   31.9130 C.2     3  ASP3        0.0526
     49 OD2       108.1620    6.5370   32.7180 O.co2   3  ASP3       -0.5491
     50 OD1       106.7300    7.9990   31.9010 O.co2   3  ASP3       -0.5491
     51 N         108.2220    3.1560   28.8370 N.am    4  TRP4       -0.1974
     52 CA        107.8400    2.1060   27.9120 C.3     4  TRP4        0.1637
     53 C         109.0940    1.3360   27.5300 C.2     4  TRP4        0.2290
     54 O         110.1670    1.5680   28.1020 O.2     4  TRP4       -0.2864
     55 CB        107.1590    2.7040   26.6700 C.3     4  TRP4        0.0539
     56 CG        107.9930    3.6990   25.9160 C.2     4  TRP4       -0.0137
     57 CD1       108.9930    3.4270   25.0250 C.2     4  TRP4        0.0907
     58 CD2       107.9030    5.1280   25.9930 C.3     4  TRP4        0.0819
     59 NE1       109.5280    4.5970   24.5410 N.2     4  TRP4       -0.2482
     60 CE2       108.8800    5.6560   25.1190 C.2     4  TRP4        0.0665
     61 CE3       107.0930    6.0140   26.7170 C.2     4  TRP4       -0.0164
     62 CZ2       109.0700    7.0330   24.9470 C.2     4  TRP4        0.0153
     63 CZ3       107.2830    7.3900   26.5460 C.2     4  TRP4       -0.0038
     64 CH2       108.2660    7.8810   25.6660 C.2     4  TRP4        0.0009
     65 N         105.0600   -1.9660   33.9170 N.3     1  ILE1       -0.1231
     66 CA        105.5950   -0.7450   34.4950 C.3     1  ILE1        0.1692
     67 C         104.8340   -0.3460   35.7490 C.2     1  ILE1        0.2592
     68 O         103.6170   -0.5060   35.8090 O.2     1  ILE1       -0.2718
     69 CB        105.5160    0.3920   33.4440 C.3     1  ILE1        0.0266
     70 CG1       106.0340    1.7060   34.0220 C.3     1  ILE1        0.0019
     71 CG2       104.0690    0.5430   32.9570 C.3     1  ILE1        0.0020
     72 CD1       106.2070    2.7910   32.9650 C.3     1  ILE1        0.0001
     73 N         105.5680    0.1500   36.7440 N.am    2  ASP2       -0.1976
     74 CA        105.0040    0.6060   38.0190 C.3     2  ASP2        0.1651
     75 C         104.4450   -0.5180   38.8810 C.2     2  ASP2        0.2291
     76 O         103.4330   -1.1270   38.5430 O.2     2  ASP2       -0.2864
     77 CB        103.8900    1.6290   37.7880 C.3     2  ASP2        0.0714
     78 CG        104.3910    2.9470   37.2200 C.2     2  ASP2        0.0525
     79 OD2       105.6230    3.1800   37.1480 O.co2   2  ASP2       -0.5491
     80 OD1       103.5240    3.7670   36.8500 O.co2   2  ASP2       -0.5491
     81 N         101.3460   -2.5090   36.1930 N.3     1  ASP1       -0.1241
     82 CA        100.6820   -2.2700   34.9130 C.3     1  ASP1        0.1616
     83 C         101.2060   -3.1720   33.8010 C.2     1  ASP1        0.2264
     84 O         102.3140   -3.6960   33.8730 O.2     1  ASP1       -0.2867
     85 CB        100.8860   -0.8220   34.4380 C.3     1  ASP1        0.0687
     86 CG        100.5000    0.2160   35.4720 C.2     1  ASP1        0.0522
     87 OD2        99.9250   -0.1320   36.5280 O.co2   1  ASP1       -0.5491
     88 OD1       100.7740    1.4080   35.2080 O.co2   1  ASP1       -0.5491
     89 N         100.9300   -3.3570   29.3120 N.3     1  PHE1       -0.1241
     90 CA        100.4730   -2.8140   28.0380 C.3     1  PHE1        0.1605
     91 C         101.0530   -3.6770   26.9380 C.2     1  PHE1        0.2264
     92 O         102.1940   -4.1300   27.0370 O.2     1  PHE1       -0.2867
     93 CB        101.0400   -1.4210   27.7510 C.3     1  PHE1        0.0534
     94 CG        100.5270   -0.3330   28.6340 C.ar    1  PHE1       -0.0203
     95 CD1        99.4430    0.4480   28.2410 C.ar    1  PHE1       -0.0042
     96 CD2       101.1770   -0.0290   29.8260 C.ar    1  PHE1       -0.0042
     97 CE1        99.0180    1.5250   29.0230 C.ar    1  PHE1       -0.0003
     98 CE2       100.7570    1.0450   30.6100 C.ar    1  PHE1       -0.0003
     99 CZ         99.6790    1.8220   30.2080 C.ar    1  PHE1       -0.0000
    100 N         103.9660    2.4290   23.2880 N.3     1  LYS1       -0.1231
    101 CA        104.5200    3.5080   24.1010 C.3     1  LYS1        0.1693
    102 C         103.8350    3.6530   25.4630 C.2     1  LYS1        0.2593
    103 O         103.8430    4.7290   26.0620 O.2     1  LYS1       -0.2718
    104 CB        104.4110    4.8220   23.3260 C.3     1  LYS1        0.0285
    105 CG        105.6150    5.7270   23.4500 C.3     1  LYS1        0.0035
    106 CD        105.4440    6.9720   22.5850 C.3     1  LYS1        0.0206
    107 CE        106.6800    7.8500   22.6350 C.3     1  LYS1        0.1093
    108 NZ        106.5180    9.0800   21.8080 N.3     1  LYS1       -0.1314
    109 N         103.2360    2.5690   25.9430 N.am    2  GLY2       -0.1942
    110 CA        102.5710    2.6080   27.2340 C.3     2  GLY2        0.2014
    111 C         101.4200    3.5960   27.3380 C.2     2  GLY2        0.2639
    112 O         100.5980    3.7180   26.4300 O.2     2  GLY2       -0.2714
    113 N         101.3590    4.3070   28.4580 N.am    3  ILE3       -0.1963
    114 CA        100.2950    5.2710   28.6870 C.3     3  ILE3        0.1727
    115 C         100.3500    6.3850   27.6370 C.2     3  ILE3        0.2616
    116 O          99.3510    7.0500   27.3760 O.2     3  ILE3       -0.2715
    117 CB        100.3990    5.8700   30.1220 C.3     3  ILE3        0.0290
    118 CG1        99.0360    6.3830   30.5760 C.3     3  ILE3        0.0022
    119 CG2       101.4110    7.0120   30.1510 C.3     3  ILE3        0.0023
    120 CD1        99.0190    6.8310   32.0270 C.3     3  ILE3        0.0001
    121 N         101.5140    6.5610   27.0180 N.am    4  PHE4       -0.1974
    122 CA        101.6860    7.5930   26.0020 C.3     4  PHE4        0.1639
    123 C         101.4130    7.1310   24.5820 C.2     4  PHE4        0.2290
    124 O         101.6300    7.8840   23.6320 O.2     4  PHE4       -0.2864
    125 CB        103.0930    8.1760   26.0850 C.3     4  PHE4        0.0560
    126 CG        103.3570    8.8940   27.3650 C.ar    4  PHE4       -0.0200
    127 CD2       104.1290    8.3110   28.3610 C.ar    4  PHE4       -0.0042
    128 CD1       102.7820   10.1380   27.6020 C.ar    4  PHE4       -0.0042
    129 CE2       104.3210    8.9550   29.5770 C.ar    4  PHE4       -0.0003
    130 CE1       102.9690   10.7880   28.8150 C.ar    4  PHE4       -0.0003
    131 CZ        103.7380   10.1960   29.8030 C.ar    4  PHE4       -0.0000
    132 N          93.0490    4.5960   30.8200 N.3     1  PHE1       -0.1241
    133 CA         94.1800    4.0780   31.5820 C.3     1  PHE1        0.1605
    134 C          93.7260    3.7000   32.9950 C.2     1  PHE1        0.2264
    135 O          92.8660    4.3650   33.5830 O.2     1  PHE1       -0.2867
    136 CB         95.2830    5.1370   31.7080 C.3     1  PHE1        0.0534
    137 CG         96.3600    4.7840   32.7080 C.ar    1  PHE1       -0.0203
    138 CD1        97.3170    3.8210   32.4120 C.ar    1  PHE1       -0.0042
    139 CD2        96.4110    5.4170   33.9490 C.ar    1  PHE1       -0.0042
    140 CE1        98.3160    3.4920   33.3350 C.ar    1  PHE1       -0.0003
    141 CE2        97.4040    5.0930   34.8770 C.ar    1  PHE1       -0.0003
    142 CZ         98.3590    4.1280   34.5630 C.ar    1  PHE1       -0.0000
    143 N          96.0610    2.2610   36.2250 N.3     1  GLY1       -0.1210
    144 CA         97.3490    1.7800   36.6770 C.3     1  GLY1        0.1956
    145 C          97.5660    2.0590   38.1450 C.2     1  GLY1        0.2611
    146 O          96.8190    2.8190   38.7670 O.2     1  GLY1       -0.2717
    147 N          98.6060    1.4600   38.7100 N.am    2  VAL2       -0.1979
    148 CA         98.8710    1.6490   40.1270 C.3     2  VAL2        0.1595
    149 C          99.6210    2.9380   40.4560 C.2     2  VAL2        0.2287
    150 O         100.2620    3.5470   39.5960 O.2     2  VAL2       -0.2864
    151 CB         99.7130    0.4850   40.7100 C.3     2  VAL2        0.0276
    152 CG2        99.0490   -0.8690   40.4220 C.3     2  VAL2        0.0022
    153 CG1       101.1280    0.5360   40.1410 C.3     2  VAL2        0.0022
    154 N         102.5340    3.6080   42.1890 N.3     1  PRO1       -0.2116
    155 CA        103.6530    2.8290   42.7290 C.3     1  PRO1        0.1372
    156 C         104.1370    3.1050   44.1350 C.2     1  PRO1        0.2244
    157 O         104.0920    4.2320   44.6300 O.2     1  PRO1       -0.2868
    158 CB        104.7400    3.0050   41.6710 C.3     1  PRO1        0.0268
    159 CG        104.4860    4.3750   41.1660 C.3     1  PRO1        0.0207
    160 CD        102.9760    4.4350   41.0500 C.3     1  PRO1        0.0892
    161 N          95.0850    4.8250   39.6780 N.3     1  TYR1       -0.1241
    162 CA         94.5000    6.0280   39.1060 C.3     1  TYR1        0.1605
    163 C          94.0640    5.7270   37.6880 C.2     1  TYR1        0.2264
    164 O          94.5460    4.7810   37.0630 O.2     1  TYR1       -0.2867
    165 CB         95.4460    7.2480   39.1870 C.3     1  TYR1        0.0534
    166 CG         96.7520    7.2080   38.4130 C.ar    1  TYR1       -0.0201
    167 CD1        96.9690    8.0730   37.3400 C.ar    1  TYR1       -0.0009
    168 CD2        97.8030    6.3800   38.8090 C.ar    1  TYR1       -0.0009
    169 CE1        98.2040    8.1230   36.6820 C.ar    1  TYR1        0.0417
    170 CE2        99.0440    6.4170   38.1590 C.ar    1  TYR1        0.0417
    171 CZ         99.2360    7.2950   37.0970 C.ar    1  TYR1        0.1957
    172 OH        100.4520    7.3520   36.4490 O.3     1  TYR1       -0.2866
    173 N          95.0990   12.1430   29.5790 N.3     1  LEU1       -0.1231
    174 CA         96.1630   12.7070   30.4070 C.3     1  LEU1        0.1693
    175 C          96.1510   14.2260   30.5760 C.2     1  LEU1        0.2592
    176 O          96.9070   14.7640   31.3880 O.2     1  LEU1       -0.2718
    177 CB         97.5300   12.2680   29.8670 C.3     1  LEU1        0.0284
    178 CG         97.8650   10.7810   30.0280 C.3     1  LEU1        0.0019
    179 CD1        99.0920   10.4350   29.1910 C.3     1  LEU1        0.0001
    180 CD2        98.1020   10.4620   31.5020 C.3     1  LEU1        0.0001
    181 N          95.3000   14.9190   29.8280 N.am    2  ASN2       -0.1974
    182 CA         95.2480   16.3700   29.9370 C.3     2  ASN2        0.1688
    183 C          94.4030   16.8620   31.1040 C.2     2  ASN2        0.2292
    184 O          94.7380   17.8660   31.7360 O.2     2  ASN2       -0.2864
    185 CB         94.7270   16.9850   28.6370 C.3     2  ASN2        0.1181
    186 CG         95.6260   16.6870   27.4580 C.2     2  ASN2        0.2629
    187 OD1        96.8330   16.9160   27.5140 O.2     2  ASN2       -0.2716
    188 ND2        95.0430   16.1770   26.3800 N.am    2  ASN2       -0.0877
    189 N          93.1880   12.5160   35.0260 N.3     1  GLN1       -0.1245
    190 CA         93.8780   11.6170   35.9510 C.3     1  GLN1        0.1566
    191 C          93.1910   11.7140   37.3090 C.2     1  GLN1        0.2260
    192 O          93.1180   12.7950   37.8890 O.2     1  GLN1       -0.2867
    193 CB         95.3550   11.9960   36.0600 C.3     1  GLN1        0.0367
    194 CG         96.1030   11.8140   34.7350 C.3     1  GLN1        0.0905
    195 CD         97.5520   12.2310   34.8240 C.2     1  GLN1        0.2608
    196 OE1        98.4130   11.4460   35.2170 O.2     1  GLN1       -0.2717
    197 NE2        97.8300   13.4820   34.4700 N.am    1  GLN1       -0.0878
    198 N          92.8790   17.2130   38.8550 N.3     1  GLN1       -0.1245
    199 CA         93.4160   15.8590   38.7360 C.3     1  GLN1        0.1566
    200 C          94.1580   15.4600   40.0080 C.2     1  GLN1        0.2260
    201 O          94.5920   16.3060   40.7870 O.2     1  GLN1       -0.2867
    202 CB         94.4060   15.7620   37.5730 C.3     1  GLN1        0.0367
    203 CG         93.8070   15.8980   36.1850 C.3     1  GLN1        0.0905
    204 CD         94.8660   15.8080   35.0920 C.2     1  GLN1        0.2608
    205 OE1        94.9580   14.8080   34.3690 O.2     1  GLN1       -0.2717
    206 NE2        95.6780   16.8550   34.9710 N.am    1  GLN1       -0.0878
    207 N          96.7760   12.0220   40.7760 N.3     1  THR1       -0.1203
    208 CA         97.3110   10.8480   40.0960 C.3     1  THR1        0.1994
    209 C          97.8590    9.7570   41.0140 C.2     1  THR1        0.2617
    210 O          97.0920    9.1360   41.7520 O.2     1  THR1       -0.2717
    211 CB         98.3740   11.3120   39.0370 C.3     1  THR1        0.1784
    212 OG1        99.6190   11.6440   39.6690 O.3     1  THR1       -0.2211
    213 CG2        97.8690   12.5730   38.3270 C.3     1  THR1        0.0376
    214 N          99.1630    9.5020   40.9620 N.am    2  GLU2       -0.1979
    215 CA         99.7570    8.4880   41.8270 C.3     2  GLU2        0.1600
    216 C          99.5100    8.9190   43.2600 C.2     2  GLU2        0.2287
    217 O          99.4900   10.1120   43.5580 O.2     2  GLU2       -0.2864
    218 CB        101.2560    8.3970   41.5960 C.3     2  GLU2        0.0356
    219 CG        101.6270    8.0830   40.1670 C.3     2  GLU2        0.0439
    220 CD        103.0700    8.4140   39.8770 C.2     2  GLU2        0.0504
    221 OE2       103.5580    9.4190   40.4380 O.co2   2  GLU2       -0.5492
    222 OE1       103.7050    7.6910   39.0810 O.co2   2  GLU2       -0.5492
    223 N          99.4760   12.8070   44.3240 N.3     1  ARG1       -0.1245
    224 CA        100.3250   13.6450   43.4800 C.3     1  ARG1        0.1563
    225 C          99.3850   14.5250   42.6680 C.2     1  ARG1        0.2260
    226 O          98.4120   14.0330   42.0940 O.2     1  ARG1       -0.2867
    227 CB        101.1660   12.7770   42.5390 C.3     1  ARG1        0.0307
    228 CG        101.7650   13.5240   41.3450 C.3     1  ARG1        0.0489
    229 CD        102.6650   12.5980   40.5390 C.3     1  ARG1        0.2205
    230 NE        103.0980   13.1900   39.2790 N.pl3   1  ARG1       -0.0865
    231 CZ        103.9280   12.5990   38.4240 C.cat   1  ARG1        0.5346
    232 NH2       104.4220   11.3980   38.7000 N.pl3   1  ARG1        0.1354
    233 NH1       104.2540   13.2010   37.2860 N.pl3   1  ARG1        0.1354
    234 N          98.6700   18.8960   40.8450 N.3     1  LEU1       -0.1245
    235 CA         99.1770   20.1070   40.2090 C.3     1  LEU1        0.1561
    236 C          98.8620   21.4160   40.9250 C.2     1  LEU1        0.2260
    237 O          98.7960   22.4710   40.2850 O.2     1  LEU1       -0.2867
    238 CB         98.6460   20.1720   38.7710 C.3     1  LEU1        0.0270
    239 CG         99.1290   19.0270   37.8770 C.3     1  LEU1        0.0019
    240 CD1        98.2850   18.9280   36.6220 C.3     1  LEU1        0.0001
    241 CD2       100.5840   19.2600   37.5290 C.3     1  LEU1        0.0001
    242 N         104.8760   17.8390   41.6680 N.3     1  TYR1       -0.1241
    243 CA        104.2100   16.9250   40.7330 C.3     1  TYR1        0.1605
    244 C         105.0850   15.6970   40.4910 C.2     1  TYR1        0.2264
    245 O         105.6220   15.4790   39.4020 O.2     1  TYR1       -0.2867
    246 CB        103.8740   17.6210   39.4030 C.3     1  TYR1        0.0534
    247 CG        102.9640   16.8070   38.4960 C.ar    1  TYR1       -0.0201
    248 CD2       101.7880   16.2290   38.9860 C.ar    1  TYR1       -0.0009
    249 CD1       103.2680   16.6320   37.1450 C.ar    1  TYR1       -0.0009
    250 CE2       100.9390   15.4980   38.1550 C.ar    1  TYR1        0.0417
    251 CE1       102.4270   15.9040   36.3040 C.ar    1  TYR1        0.0417
    252 CZ        101.2640   15.3390   36.8140 C.ar    1  TYR1        0.1957
    253 OH        100.4340   14.6190   35.9820 O.3     1  TYR1       -0.2866
    254 N         112.5900   18.1480   40.6710 N.3     1  ARG1       -0.1245
    255 CA        112.6620   16.8480   41.3260 C.3     1  ARG1        0.1563
    256 C         114.0430   16.7350   41.9450 C.2     1  ARG1        0.2260
    257 O         114.9370   16.0690   41.4190 O.2     1  ARG1       -0.2867
    258 CB        112.4010   15.7230   40.3240 C.3     1  ARG1        0.0307
    259 CG        110.9550   15.7120   39.8440 C.3     1  ARG1        0.0489
    260 CD        110.6590   14.5740   38.8820 C.3     1  ARG1        0.2205
    261 NE        109.2280   14.5170   38.6010 N.pl3   1  ARG1       -0.0865
    262 CZ        108.6230   13.5050   37.9880 C.cat   1  ARG1        0.5346
    263 NH1       109.3240   12.4550   37.5860 N.pl3   1  ARG1        0.1354
    264 NH2       107.3120   13.5380   37.7910 N.pl3   1  ARG1        0.1354
    265 N         110.9130    9.5310   42.8430 N.3     1  TYR1       -0.1241
    266 CA        110.0890    8.5180   43.5000 C.3     1  TYR1        0.1605
    267 C         110.7860    7.9000   44.7060 C.2     1  TYR1        0.2264
    268 O         112.0120    7.7640   44.7320 O.2     1  TYR1       -0.2867
    269 CB        109.6960    7.4200   42.5010 C.3     1  TYR1        0.0534
    270 CG        108.6660    7.8430   41.4680 C.ar    1  TYR1       -0.0201
    271 CD1       108.7440    9.0880   40.8370 C.ar    1  TYR1       -0.0009
    272 CD2       107.6390    6.9760   41.0870 C.ar    1  TYR1       -0.0009
    273 CE1       107.8280    9.4580   39.8480 C.ar    1  TYR1        0.0417
    274 CE2       106.7200    7.3350   40.1020 C.ar    1  TYR1        0.0417
    275 CZ        106.8210    8.5750   39.4870 C.ar    1  TYR1        0.1957
    276 OH        105.9190    8.9270   38.5050 O.3     1  TYR1       -0.2866
    277 N         117.1790    6.2550   36.8240 N.3     1  TYR1       -0.1241
    278 CA        117.7360    6.7310   38.0890 C.3     1  TYR1        0.1605
    279 C         118.4800    5.5600   38.7220 C.2     1  TYR1        0.2264
    280 O         118.4110    4.4260   38.2450 O.2     1  TYR1       -0.2867
    281 CB        116.6210    7.1100   39.0740 C.3     1  TYR1        0.0534
    282 CG        115.9800    8.4540   38.8570 C.ar    1  TYR1       -0.0201
    283 CD2       116.5770    9.6130   39.3430 C.ar    1  TYR1       -0.0009
    284 CD1       114.7690    8.5680   38.1710 C.ar    1  TYR1       -0.0009
    285 CE2       115.9870   10.8570   39.1550 C.ar    1  TYR1        0.0417
    286 CE1       114.1690    9.8050   37.9760 C.ar    1  TYR1        0.0417
    287 CZ        114.7830   10.9470   38.4710 C.ar    1  TYR1        0.1957
    288 OH        114.1840   12.1750   38.2950 O.3     1  TYR1       -0.2866
@<TRIPOS>UNITY_ATOM_ATTR
49 1
charge -1
79 1
charge -1
87 1
charge -1
221 1
charge -1
@<TRIPOS>BOND
     1     1     2    1
     2     2     5    1
     3     2     3    1
     4     3     4    2
     5     3    12   am
     6     5     6    1
     7     6     7    1
     8     7     8    1
     9     8     9    2
    10     9    10    1
    11     9    11    1
    12    12    13    1
    13    13    16    1
    14    13    14    1
    15    14    15    2
    16    16    17    1
    17    16    18    1
    18    17    19    1
    19    20    21    1
    20    21    22    1
    21    21    24    1
    22    22    23    2
    23    24    25    1
    24    25    26    1
    25    26    27    1
    26    27    28    2
    27    28    29    1
    28    28    30    1
    29    31    32    1
    30    32    33    1
    31    32    35    1
    32    33    37   am
    33    33    34    2
    34    35    36    1
    35    37    38    1
    36    38    41    1
    37    38    39    1
    38    39    43   am
    39    39    40    2
    40    41    42    1
    41    43    44    1
    42    44    45    1
    43    44    47    1
    44    45    51   am
    45    45    46    2
    46    47    48    1
    47    48    50   ar
    48    48    49   ar
    49    51    52    1
    50    52    55    1
    51    52    53    1
    52    53    54    2
    53    55    56    1
    54    56    57    2
    55    56    58    1
    56    57    59    1
    57    58    60    1
    58    58    61    1
    59    59    60    2
    60    60    62    1
    61    61    63    2
    62    62    64    2
    63    63    64    1
    64    65    66    1
    65    66    69    1
    66    66    67    1
    67    67    68    2
    68    67    73   am
    69    69    71    1
    70    69    70    1
    71    70    72    1
    72    73    74    1
    73    74    77    1
    74    74    75    1
    75    75    76    2
    76    77    78    1
    77    78    80   ar
    78    78    79   ar
    79    81    82    1
    80    82    83    1
    81    82    85    1
    82    83    84    2
    83    85    86    1
    84    86    88   ar
    85    86    87   ar
    86    89    90    1
    87    90    91    1
    88    90    93    1
    89    91    92    2
    90    93    94    1
    91    94    95   ar
    92    94    96   ar
    93    95    97   ar
    94    96    98   ar
    95    97    99   ar
    96    98    99   ar
    97   100   101    1
    98   101   104    1
    99   101   102    1
   100   102   109   am
   101   102   103    2
   102   104   105    1
   103   105   106    1
   104   106   107    1
   105   107   108    1
   106   109   110    1
   107   110   111    1
   108   111   112    2
   109   111   113   am
   110   113   114    1
   111   114   115    1
   112   114   117    1
   113   115   121   am
   114   115   116    2
   115   117   119    1
   116   117   118    1
   117   118   120    1
   118   121   122    1
   119   122   123    1
   120   122   125    1
   121   123   124    2
   122   125   126    1
   123   126   128   ar
   124   126   127   ar
   125   127   129   ar
   126   128   130   ar
   127   129   131   ar
   128   130   131   ar
   129   132   133    1
   130   133   136    1
   131   133   134    1
   132   134   135    2
   133   136   137    1
   134   137   138   ar
   135   137   139   ar
   136   138   140   ar
   137   139   141   ar
   138   140   142   ar
   139   141   142   ar
   140   143   144    1
   141   144   145    1
   142   145   147   am
   143   145   146    2
   144   147   148    1
   145   148   149    1
   146   148   151    1
   147   149   150    2
   148   151   153    1
   149   151   152    1
   150   154   160    1
   151   154   155    1
   152   155   158    1
   153   155   156    1
   154   156   157    2
   155   158   159    1
   156   159   160    1
   157   161   162    1
   158   162   163    1
   159   162   165    1
   160   163   164    2
   161   165   166    1
   162   166   167   ar
   163   166   168   ar
   164   167   169   ar
   165   168   170   ar
   166   169   171   ar
   167   170   171   ar
   168   171   172    1
   169   173   174    1
   170   174   177    1
   171   174   175    1
   172   175   181   am
   173   175   176    2
   174   177   178    1
   175   178   179    1
   176   178   180    1
   177   181   182    1
   178   182   185    1
   179   182   183    1
   180   183   184    2
   181   185   186    1
   182   186   188   am
   183   186   187    2
   184   189   190    1
   185   190   193    1
   186   190   191    1
   187   191   192    2
   188   193   194    1
   189   194   195    1
   190   195   197   am
   191   195   196    2
   192   198   199    1
   193   199   202    1
   194   199   200    1
   195   200   201    2
   196   202   203    1
   197   203   204    1
   198   204   205    2
   199   204   206   am
   200   207   208    1
   201   208   211    1
   202   208   209    1
   203   209   214   am
   204   209   210    2
   205   211   213    1
   206   211   212    1
   207   214   215    1
   208   215   218    1
   209   215   216    1
   210   216   217    2
   211   218   219    1
   212   219   220    1
   213   220   222   ar
   214   220   221   ar
   215   223   224    1
   216   224   227    1
   217   224   225    1
   218   225   226    2
   219   227   228    1
   220   228   229    1
   221   229   230    1
   222   230   231    2
   223   231   233    1
   224   231   232    1
   225   234   235    1
   226   235   238    1
   227   235   236    1
   228   236   237    2
   229   238   239    1
   230   239   240    1
   231   239   241    1
   232   242   243    1
   233   243   246    1
   234   243   244    1
   235   244   245    2
   236   246   247    1
   237   247   249   ar
   238   247   248   ar
   239   248   250   ar
   240   249   251   ar
   241   250   252   ar
   242   251   252   ar
   243   252   253    1
   244   254   255    1
   245   255   258    1
   246   255   256    1
   247   256   257    2
   248   258   259    1
   249   259   260    1
   250   260   261    1
   251   261   262    2
   252   262   263    1
   253   262   264    1
   254   265   266    1
   255   266   269    1
   256   266   267    1
   257   267   268    2
   258   269   270    1
   259   270   271   ar
   260   270   272   ar
   261   271   273   ar
   262   272   274   ar
   263   273   275   ar
   264   274   275   ar
   265   275   276    1
   266   277   278    1
   267   278   279    1
   268   278   281    1
   269   279   280    2
   270   281   282    1
   271   282   284   ar
   272   282   283   ar
   273   283   285   ar
   274   284   286   ar
   275   285   287   ar
   276   286   287   ar
   277   287   288    1
