@<TRIPOS>MOLECULE
./3erk/protein.pdb
 126 117 0 0 0
SMALL
GASTEIGER

@<TRIPOS>ATOM
      1 N         -14.5970   19.5650   36.0290 N.3     1  VAL1       -0.1245
      2 CA        -15.5460   18.4960   36.3170 C.3     1  VAL1        0.1561
      3 C         -16.9880   18.9820   36.3360 C.2     1  VAL1        0.2260
      4 O         -17.2940   20.0440   36.8720 O.2     1  VAL1       -0.2867
      5 CB        -15.2170   17.8150   37.6760 C.3     1  VAL1        0.0252
      6 CG2       -16.1470   16.6490   37.9320 C.3     1  VAL1        0.0019
      7 CG1       -13.7930   17.3350   37.6690 C.3     1  VAL1        0.0019
      8 N         -20.2350   11.6520   36.8830 N.3     1  ALA1       -0.1231
      9 CA        -19.2760   12.7310   37.0500 C.3     1  ALA1        0.1694
     10 C         -18.3590   12.6070   35.8480 C.2     1  ALA1        0.2592
     11 O         -17.9780   11.5010   35.4670 O.2     1  ALA1       -0.2718
     12 CB        -18.4910   12.5600   38.3500 C.3     1  ALA1        0.0304
     13 N         -18.0290   13.7400   35.2420 N.am    2  ILE2       -0.1966
     14 CA        -17.1660   13.7440   34.0800 C.3     2  ILE2        0.1727
     15 C         -16.0660   14.7880   34.2340 C.2     2  ILE2        0.2616
     16 O         -16.3100   15.8850   34.7160 O.2     2  ILE2       -0.2715
     17 CB        -17.9910   14.0230   32.8010 C.3     2  ILE2        0.0290
     18 CG1       -19.2840   13.1920   32.8350 C.3     2  ILE2        0.0022
     19 CG2       -17.1520   13.7360   31.5700 C.3     2  ILE2        0.0023
     20 CD1       -19.6460   12.5020   31.5300 C.3     2  ILE2        0.0001
     21 N         -14.8520   14.4330   33.8440 N.am    3  LYS3       -0.1977
     22 CA        -13.7310   15.3470   33.9310 C.3     3  LYS3        0.1596
     23 C         -13.0830   15.5510   32.5680 C.2     3  LYS3        0.2287
     24 O         -12.6860   14.6000   31.9030 O.2     3  LYS3       -0.2864
     25 CB        -12.6840   14.8280   34.9180 C.3     3  LYS3        0.0298
     26 CG        -11.3460   15.5660   34.8480 C.3     3  LYS3        0.0038
     27 CD        -10.7520   15.7580   36.2240 C.3     3  LYS3        0.0206
     28 CE         -9.3690   15.1480   36.3070 C.3     3  LYS3        0.1093
     29 NZ         -9.1540   14.4410   37.6020 N.3     3  LYS3       -0.1314
     30 N          -2.4280    7.0730   35.4960 N.3     1  GLU1       -0.1245
     31 CA         -3.6380    6.9270   36.2900 C.3     1  GLU1        0.1565
     32 C          -4.7540    6.2140   35.5340 C.2     1  GLU1        0.2260
     33 O          -5.5390    5.4860   36.1360 O.2     1  GLU1       -0.2867
     34 CB         -4.1320    8.2870   36.7830 C.3     1  GLU1        0.0329
     35 CG         -5.6250    8.3150   37.0680 C.3     1  GLU1        0.0437
     36 CD         -6.0310    9.4230   38.0280 C.2     1  GLU1        0.0504
     37 OE1        -5.4670   10.5420   37.9330 O.co2   1  GLU1       -0.5492
     38 OE2        -6.9210    9.1650   38.8750 O.co2   1  GLU1       -0.5492
     39 N          -6.3580    2.8060   37.0580 N.3     1  LEU1       -0.1245
     40 CA         -7.7940    2.8340   37.2820 C.3     1  LEU1        0.1561
     41 C          -8.5690    1.8580   36.4180 C.2     1  LEU1        0.2260
     42 O          -9.6180    1.3690   36.8280 O.2     1  LEU1       -0.2867
     43 CB         -8.3140    4.2560   37.0760 C.3     1  LEU1        0.0270
     44 CG         -8.8160    5.0120   38.3170 C.3     1  LEU1        0.0019
     45 CD2        -8.2160    4.4340   39.5740 C.3     1  LEU1        0.0001
     46 CD1        -8.4820    6.4640   38.2070 C.3     1  LEU1        0.0001
     47 N         -12.6040    4.1100   43.1210 N.3     1  ILE1       -0.1245
     48 CA        -13.4310    4.5860   42.0180 C.3     1  ILE1        0.1561
     49 C         -13.0270    3.9670   40.6800 C.2     1  ILE1        0.2260
     50 O         -11.8420    3.8130   40.3870 O.2     1  ILE1       -0.2867
     51 CB        -13.3520    6.1230   41.9030 C.3     1  ILE1        0.0252
     52 CG1       -14.5420    6.6410   41.1000 C.3     1  ILE1        0.0019
     53 CG2       -12.0380    6.5400   41.2390 C.3     1  ILE1        0.0019
     54 CD1       -15.7650    6.9580   41.9400 C.3     1  ILE1        0.0001
     55 N         -13.2970   11.6430   31.0070 N.3     1  ILE1       -0.1245
     56 CA        -13.3470   10.4060   31.7590 C.3     1  ILE1        0.1561
     57 C         -14.6230   10.4600   32.5810 C.2     1  ILE1        0.2260
     58 O         -14.9400   11.4850   33.1780 O.2     1  ILE1       -0.2867
     59 CB        -12.1130   10.2580   32.6640 C.3     1  ILE1        0.0252
     60 CG1       -10.8510   10.2450   31.8010 C.3     1  ILE1        0.0019
     61 CG2       -12.1830    8.9480   33.4380 C.3     1  ILE1        0.0019
     62 CD1        -9.9230   11.4240   32.0210 C.3     1  ILE1        0.0001
     63 N         -16.9990    8.7540   35.6280 N.3     1  GLN1       -0.1231
     64 CA        -16.9700    7.9380   36.8330 C.3     1  GLN1        0.1698
     65 C         -18.3120    8.0760   37.5320 C.2     1  GLN1        0.2592
     66 O         -19.0660    9.0120   37.2590 O.2     1  GLN1       -0.2718
     67 CB        -15.8880    8.4280   37.7930 C.3     1  GLN1        0.0381
     68 CG        -14.4630    8.0880   37.4120 C.3     1  GLN1        0.0905
     69 CD        -13.4420    8.7920   38.3110 C.2     1  GLN1        0.2608
     70 OE1       -13.8040    9.5790   39.1960 O.2     1  GLN1       -0.2717
     71 NE2       -12.1630    8.5110   38.0860 N.am    1  GLN1       -0.0878
     72 N         -18.6020    7.1470   38.4370 N.am    2  ASP2       -0.1976
     73 CA        -19.8400    7.1900   39.2020 C.3     2  ASP2        0.1651
     74 C         -19.9040    8.5430   39.8860 C.2     2  ASP2        0.2291
     75 O         -18.8750    9.1400   40.2090 O.2     2  ASP2       -0.2864
     76 CB        -19.8330    6.1270   40.2910 C.3     2  ASP2        0.0714
     77 CG        -20.1820    4.7570   39.7770 C.2     2  ASP2        0.0525
     78 OD1       -20.4780    4.6180   38.5720 O.co2   2  ASP2       -0.5491
     79 OD2       -20.1590    3.8140   40.5970 O.co2   2  ASP2       -0.5491
     80 N          -9.8270   14.6160   51.1160 N.3     1  SER1       -0.1202
     81 CA        -10.4220   15.0600   49.8630 C.3     1  SER1        0.2020
     82 C         -10.3070   14.0090   48.7590 C.2     1  SER1        0.2618
     83 O         -10.9730   14.1120   47.7230 O.2     1  SER1       -0.2717
     84 CB         -9.7620   16.3510   49.4110 C.3     1  SER1        0.2103
     85 OG         -8.6050   16.0560   48.6680 O.3     1  SER1       -0.2182
     86 N          -9.4690   12.9980   48.9820 N.am    2  ASN2       -0.1974
     87 CA         -9.2740   11.9500   47.9980 C.3     2  ASN2        0.1688
     88 C         -10.0640   10.6990   48.3250 C.2     2  ASN2        0.2292
     89 O          -9.8280    9.6420   47.7500 O.2     2  ASN2       -0.2864
     90 CB         -7.7950   11.6040   47.8670 C.3     2  ASN2        0.1181
     91 CG         -7.0820   12.4850   46.8670 C.2     2  ASN2        0.2629
     92 OD1        -5.8610   12.6020   46.8810 O.2     2  ASN2       -0.2716
     93 ND2        -7.8480   13.1130   45.9880 N.am    2  ASN2       -0.0877
     94 N         -13.8590    9.5730   48.2470 N.3     1  LEU1       -0.1245
     95 CA        -15.2200    9.9050   47.8420 C.3     1  LEU1        0.1561
     96 C         -16.2520    9.1900   48.6920 C.2     1  LEU1        0.2260
     97 O         -16.0330    8.0730   49.1650 O.2     1  LEU1       -0.2867
     98 CB        -15.4370    9.5550   46.3670 C.3     1  LEU1        0.0270
     99 CG        -14.4140   10.1880   45.4190 C.3     1  LEU1        0.0019
    100 CD1       -14.4450    9.5010   44.0670 C.3     1  LEU1        0.0001
    101 CD2       -14.7040   11.6620   45.2860 C.3     1  LEU1        0.0001
    102 N          -9.8560    7.7400   45.4140 N.3     1  CYS1       -0.1221
    103 CA         -9.6950    8.2420   44.0590 C.3     1  CYS1        0.1808
    104 C          -8.3890    8.9940   43.9800 C.2     1  CYS1        0.2601
    105 O          -7.6200    9.0020   44.9350 O.2     1  CYS1       -0.2717
    106 CB        -10.8540    9.1720   43.6750 C.3     1  CYS1        0.0970
    107 SG        -10.8210   10.8120   44.4530 S.3     1  CYS1       -0.0800
    108 N          -8.1500    9.5970   42.8210 N.am    2  ASP2       -0.1961
    109 CA         -6.9640   10.3970   42.5430 C.3     2  ASP2        0.1783
    110 C          -5.6250    9.6750   42.5980 C.2     2  ASP2        0.2620
    111 O          -4.8320    9.8670   43.5270 O.2     2  ASP2       -0.2715
    112 CB         -6.9280   11.6050   43.4720 C.3     2  ASP2        0.0728
    113 CG         -5.9880   12.6910   42.9780 C.2     2  ASP2        0.0526
    114 OD1        -5.3020   12.4680   41.9560 O.co2   2  ASP2       -0.5491
    115 OD2        -5.9340   13.7650   43.6140 O.co2   2  ASP2       -0.5491
    116 N          -5.3620    8.8640   41.5840 N.am    3  PHE3       -0.1974
    117 CA         -4.1150    8.1320   41.5160 C.3     3  PHE3        0.1639
    118 C          -3.1330    8.8550   40.5940 C.2     3  PHE3        0.2290
    119 O          -2.3550    8.2290   39.8860 O.2     3  PHE3       -0.2864
    120 CB         -4.3880    6.7120   41.0160 C.3     3  PHE3        0.0560
    121 CG         -5.1430    5.8530   42.0100 C.ar    3  PHE3       -0.0200
    122 CD1        -6.4890    6.0890   42.2780 C.ar    3  PHE3       -0.0042
    123 CD2        -4.4970    4.8270   42.6900 C.ar    3  PHE3       -0.0042
    124 CE1        -7.1750    5.3260   43.2040 C.ar    3  PHE3       -0.0003
    125 CE2        -5.1780    4.0480   43.6260 C.ar    3  PHE3       -0.0003
    126 CZ         -6.5140    4.2950   43.8850 C.ar    3  PHE3       -0.0000
@<TRIPOS>UNITY_ATOM_ATTR
37 1
charge -1
78 1
charge -1
114 1
charge -1
@<TRIPOS>BOND
     1     1     2    1
     2     2     3    1
     3     2     5    1
     4     3     4    2
     5     5     7    1
     6     5     6    1
     7     8     9    1
     8     9    10    1
     9     9    12    1
    10    10    13   am
    11    10    11    2
    12    13    14    1
    13    14    17    1
    14    14    15    1
    15    15    21   am
    16    15    16    2
    17    17    19    1
    18    17    18    1
    19    18    20    1
    20    21    22    1
    21    22    23    1
    22    22    25    1
    23    23    24    2
    24    25    26    1
    25    26    27    1
    26    27    28    1
    27    28    29    1
    28    30    31    1
    29    31    32    1
    30    31    34    1
    31    32    33    2
    32    34    35    1
    33    35    36    1
    34    36    37   ar
    35    36    38   ar
    36    39    40    1
    37    40    41    1
    38    40    43    1
    39    41    42    2
    40    43    44    1
    41    44    46    1
    42    44    45    1
    43    47    48    1
    44    48    49    1
    45    48    51    1
    46    49    50    2
    47    51    52    1
    48    51    53    1
    49    52    54    1
    50    55    56    1
    51    56    57    1
    52    56    59    1
    53    57    58    2
    54    59    60    1
    55    59    61    1
    56    60    62    1
    57    63    64    1
    58    64    65    1
    59    64    67    1
    60    65    66    2
    61    65    72   am
    62    67    68    1
    63    68    69    1
    64    69    71   am
    65    69    70    2
    66    72    73    1
    67    73    74    1
    68    73    76    1
    69    74    75    2
    70    76    77    1
    71    77    78   ar
    72    77    79   ar
    73    80    81    1
    74    81    82    1
    75    81    84    1
    76    82    83    2
    77    82    86   am
    78    84    85    1
    79    86    87    1
    80    87    90    1
    81    87    88    1
    82    88    89    2
    83    90    91    1
    84    91    93   am
    85    91    92    2
    86    94    95    1
    87    95    98    1
    88    95    96    1
    89    96    97    2
    90    98    99    1
    91    99   100    1
    92    99   101    1
    93   102   103    1
    94   103   106    1
    95   103   104    1
    96   104   108   am
    97   104   105    2
    98   106   107    1
    99   108   109    1
   100   109   110    1
   101   109   112    1
   102   110   116   am
   103   110   111    2
   104   112   113    1
   105   113   114   ar
   106   113   115   ar
   107   116   117    1
   108   117   118    1
   109   117   120    1
   110   118   119    2
   111   120   121    1
   112   121   122   ar
   113   121   123   ar
   114   122   124   ar
   115   123   125   ar
   116   124   126   ar
   117   125   126   ar
