@<TRIPOS>MOLECULE
./3erk/protein.pdb
 167 160 0 0 0
SMALL
GASTEIGER

@<TRIPOS>ATOM
      1 N           1.9890   12.0240   31.5310 N.3     1  GLN1       -0.1245
      2 CA          2.4500   10.9310   32.3720 C.3     1  GLN1        0.1566
      3 C           1.4470   10.5780   33.4610 C.2     1  GLN1        0.2260
      4 O           1.1740    9.4060   33.7060 O.2     1  GLN1       -0.2867
      5 CB          3.7810   11.2990   33.0210 C.3     1  GLN1        0.0367
      6 CG          5.0010   10.8890   32.2230 C.3     1  GLN1        0.0905
      7 CD          6.2450   11.6110   32.6770 C.2     1  GLN1        0.2608
      8 OE1         6.2780   12.1900   33.7630 O.2     1  GLN1       -0.2717
      9 NE2         7.2820   11.5850   31.8470 N.am    1  GLN1       -0.0878
     10 N          -0.5950    7.0880   33.2470 N.3     1  ARG1       -0.1245
     11 CA         -0.3790    6.2840   34.4460 C.3     1  ARG1        0.1563
     12 C          -1.6280    6.0350   35.2800 C.2     1  ARG1        0.2260
     13 O          -1.8570    4.9130   35.7320 O.2     1  ARG1       -0.2867
     14 CB          0.6870    6.9430   35.3250 C.3     1  ARG1        0.0307
     15 CG          0.6180    6.5450   36.7930 C.3     1  ARG1        0.0489
     16 CD          1.8900    6.9350   37.5260 C.3     1  ARG1        0.2205
     17 NE          3.0820    6.8220   36.6860 N.pl3   1  ARG1       -0.0865
     18 CZ          3.8330    7.8510   36.2960 C.cat   1  ARG1        0.5346
     19 NH2         3.5180    9.0860   36.6660 N.pl3   1  ARG1        0.1354
     20 NH1         4.9090    7.6430   35.5420 N.pl3   1  ARG1        0.1354
     21 N          -3.8600    2.4260   35.6570 N.3     1  ILE1       -0.1245
     22 CA         -4.1130    1.9110   37.0090 C.3     1  ILE1        0.1561
     23 C          -5.6060    1.7300   37.2770 C.2     1  ILE1        0.2260
     24 O          -6.0570    0.6510   37.6680 O.2     1  ILE1       -0.2867
     25 CB         -3.5460    2.8780   38.1040 C.3     1  ILE1        0.0252
     26 CG1        -2.0220    2.7960   38.1570 C.3     1  ILE1        0.0019
     27 CG2        -4.1340    2.5410   39.4640 C.3     1  ILE1        0.0019
     28 CD1        -1.3870    3.9450   38.9320 C.3     1  ILE1        0.0001
     29 N           0.1380    7.1610   47.4000 N.3     1  ARG1       -0.1245
     30 CA          1.0050    8.2990   47.6770 C.3     1  ARG1        0.1563
     31 C           0.3770    9.6470   47.9630 C.2     1  ARG1        0.2260
     32 O           1.0800   10.5790   48.3180 O.2     1  ARG1       -0.2867
     33 CB          2.0280    8.4490   46.5610 C.3     1  ARG1        0.0307
     34 CG          2.7930    7.1730   46.3190 C.3     1  ARG1        0.0489
     35 CD          3.7320    7.3190   45.1550 C.3     1  ARG1        0.2205
     36 NE          4.9640    7.9940   45.5340 N.pl3   1  ARG1       -0.0865
     37 CZ          5.4810    9.0150   44.8640 C.cat   1  ARG1        0.5346
     38 NH1         4.8590    9.4700   43.7840 N.pl3   1  ARG1        0.1354
     39 NH2         6.6250    9.5640   45.2540 N.pl3   1  ARG1        0.1354
     40 N           0.3320    8.1210   41.9630 N.3     1  ALA1       -0.1231
     41 CA          0.5840    6.7260   42.3010 C.3     1  ALA1        0.1694
     42 C           1.7850    6.1460   41.5730 C.2     1  ALA1        0.2592
     43 O           2.0490    6.4960   40.4330 O.2     1  ALA1       -0.2718
     44 CB         -0.6510    5.8960   42.0120 C.3     1  ALA1        0.0304
     45 N           2.5030    5.2510   42.2460 N.am    2  ARG2       -0.1966
     46 CA          3.6880    4.6090   41.6770 C.3     2  ARG2        0.1729
     47 C           3.7030    3.1120   41.9640 C.2     2  ARG2        0.2616
     48 O           3.0510    2.6510   42.8980 O.2     2  ARG2       -0.2715
     49 CB          4.9740    5.2030   42.2780 C.3     2  ARG2        0.0348
     50 CG          5.2730    6.6450   41.9130 C.3     2  ARG2        0.0492
     51 CD          5.4700    6.8540   40.4130 C.3     2  ARG2        0.2205
     52 NE          4.7100    8.0110   39.9500 N.pl3   2  ARG2       -0.0865
     53 CZ          5.1100    9.2700   40.0810 C.cat   2  ARG2        0.5346
     54 NH2         6.2730    9.5460   40.6640 N.pl3   2  ARG2        0.1354
     55 NH1         4.3290   10.2540   39.6560 N.pl3   2  ARG2        0.1354
     56 N           4.4550    2.3610   41.1570 N.am    3  VAL3       -0.1963
     57 CA          4.6100    0.9170   41.3660 C.3     3  VAL3        0.1727
     58 C           5.6410    0.8350   42.4980 C.2     3  VAL3        0.2616
     59 O           6.7160    1.4170   42.3930 O.2     3  VAL3       -0.2715
     60 CB          5.1700    0.1910   40.0960 C.3     3  VAL3        0.0290
     61 CG2         5.5840   -1.2270   40.4460 C.3     3  VAL3        0.0023
     62 CG1         4.1240    0.1610   38.9940 C.3     3  VAL3        0.0023
     63 N           5.3080    0.1410   43.5830 N.am    4  ALA4       -0.1963
     64 CA          6.2100    0.0310   44.7250 C.3     4  ALA4        0.1728
     65 C           7.6390   -0.2390   44.2880 C.2     4  ALA4        0.2616
     66 O           7.8730   -0.9290   43.3050 O.2     4  ALA4       -0.2715
     67 CB          5.7340   -1.0700   45.6630 C.3     4  ALA4        0.0334
     68 N           8.5950    0.3220   45.0150 N.am    5  ASP5       -0.1973
     69 CA         10.0070    0.1280   44.7030 C.3     5  ASP5        0.1651
     70 C          10.8140    0.4110   45.9570 C.2     5  ASP5        0.2291
     71 O          11.5470    1.3940   46.0230 O.2     5  ASP5       -0.2864
     72 CB         10.4500    1.0690   43.5830 C.3     5  ASP5        0.0714
     73 CG         11.8770    0.8250   43.1710 C.2     5  ASP5        0.0525
     74 OD2        12.4890   -0.1170   43.7190 O.co2   5  ASP5       -0.5491
     75 OD1        12.3900    1.5630   42.3090 O.co2   5  ASP5       -0.5491
     76 N          14.8520    1.1710   45.8730 N.3     1  HIS1       -0.1241
     77 CA         15.2860    2.4710   45.3900 C.3     1  HIS1        0.1621
     78 C          14.5390    3.5940   46.1090 C.2     1  HIS1        0.2264
     79 O          14.1550    4.5890   45.4950 O.2     1  HIS1       -0.2867
     80 CB         15.0600    2.5340   43.8740 C.3     1  HIS1        0.0745
     81 CG         15.6130    1.3500   43.1430 C.ar    1  HIS1        0.0817
     82 ND1        16.9450    1.2440   42.8060 N.ar    1  HIS1       -0.2268
     83 CD2        15.0360    0.1860   42.7570 C.ar    1  HIS1        0.1154
     84 CE1        17.1650    0.0670   42.2450 C.ar    1  HIS1        0.1986
     85 NE2        16.0220   -0.5930   42.2050 N.ar    1  HIS1       -0.2212
     86 N          12.1060    8.2890   49.3150 N.3     1  LYS1       -0.1245
     87 CA         11.5630    8.7310   48.0400 C.3     1  LYS1        0.1561
     88 C          10.0610    8.4290   48.0340 C.2     1  LYS1        0.2260
     89 O           9.3530    8.7760   47.0940 O.2     1  LYS1       -0.2867
     90 CB         12.2390    7.9870   46.8870 C.3     1  LYS1        0.0271
     91 CG         13.6700    8.4170   46.5890 C.3     1  LYS1        0.0035
     92 CD         14.2660    7.5500   45.4920 C.3     1  LYS1        0.0206
     93 CE         15.0960    8.3670   44.5280 C.3     1  LYS1        0.1093
     94 NZ         14.2560    9.3600   43.7930 N.3     1  LYS1       -0.1314
     95 N           8.7060    5.3920   48.0540 N.3     1  TYR1       -0.1241
     96 CA          8.4910    4.2320   47.1970 C.3     1  TYR1        0.1605
     97 C           8.2370    2.9730   48.0270 C.2     1  TYR1        0.2264
     98 O           8.4180    1.8540   47.5430 O.2     1  TYR1       -0.2867
     99 CB          9.7130    4.0030   46.2960 C.3     1  TYR1        0.0534
    100 CG         10.0160    5.1200   45.3090 C.ar    1  TYR1       -0.0201
    101 CD2         9.0740    6.1170   45.0120 C.ar    1  TYR1       -0.0009
    102 CD1        11.2500    5.1740   44.6640 C.ar    1  TYR1       -0.0009
    103 CE2         9.3650    7.1390   44.0940 C.ar    1  TYR1        0.0417
    104 CE1        11.5480    6.1830   43.7510 C.ar    1  TYR1        0.0417
    105 CZ         10.6080    7.1560   43.4720 C.ar    1  TYR1        0.1957
    106 OH         10.9330    8.1410   42.5740 O.3     1  TYR1       -0.2866
    107 N           2.7760   -3.3960   36.7270 N.3     1  LYS1       -0.1231
    108 CA          4.0930   -3.2450   36.0950 C.3     1  LYS1        0.1693
    109 C           3.9950   -2.1290   35.0570 C.2     1  LYS1        0.2592
    110 O           3.2780   -2.2630   34.0490 O.2     1  LYS1       -0.2718
    111 CB          4.5140   -4.5460   35.4020 C.3     1  LYS1        0.0285
    112 CG          5.1690   -5.5810   36.3320 C.3     1  LYS1        0.0035
    113 CD          6.1610   -4.9250   37.2960 C.3     1  LYS1        0.0206
    114 CE          6.1860   -5.6610   38.6300 C.3     1  LYS1        0.1093
    115 NZ          7.2480   -5.0750   39.5080 N.3     1  LYS1       -0.1314
    116 N           4.6940   -1.0240   35.3050 N.am    2  PHE2       -0.1976
    117 CA          4.6630    0.1020   34.3790 C.3     2  PHE2        0.1639
    118 C           5.8290    0.0640   33.4000 C.2     2  PHE2        0.2290
    119 O           6.9160    0.5890   33.6950 O.2     2  PHE2       -0.2864
    120 CB          4.6840    1.4170   35.1530 C.3     2  PHE2        0.0560
    121 CG          3.3470    2.0810   35.2300 C.ar    2  PHE2       -0.0200
    122 CD1         2.7590    2.6150   34.0910 C.ar    2  PHE2       -0.0042
    123 CD2         2.6740    2.1740   36.4380 C.ar    2  PHE2       -0.0042
    124 CE1         1.5340    3.2240   34.1560 C.ar    2  PHE2       -0.0003
    125 CE2         1.4370    2.7870   36.5090 C.ar    2  PHE2       -0.0003
    126 CZ          0.8670    3.3120   35.3690 C.ar    2  PHE2       -0.0000
    127 N           6.5980    1.7260   30.7970 N.3     1  MET1       -0.1230
    128 CA          7.2370    3.0020   30.4770 C.3     1  MET1        0.1702
    129 C           7.6380    3.7540   31.7340 C.2     1  MET1        0.2592
    130 O           7.6270    4.9920   31.7780 O.2     1  MET1       -0.2718
    131 CB          6.2990    3.8590   29.6370 C.3     1  MET1        0.0401
    132 CG          4.9010    3.9260   30.1930 C.3     1  MET1        0.0596
    133 SD          4.2850    5.6430   30.2530 S.3     1  MET1       -0.1393
    134 CE          5.8350    6.7040   30.7870 C.3     1  MET1        0.0692
    135 N           8.0070    2.9890   32.7500 N.am    2  GLU2       -0.1966
    136 CA          8.4220    3.5340   34.0290 C.3     2  GLU2        0.1731
    137 C           9.6040    4.4840   33.9100 C.2     2  GLU2        0.2616
    138 O          10.5380    4.2010   33.1520 O.2     2  GLU2       -0.2715
    139 CB          8.8270    2.3900   34.9600 C.3     2  GLU2        0.0370
    140 CG         10.0620    1.6080   34.4850 C.3     2  GLU2        0.0440
    141 CD          9.7150    0.2020   33.9860 C.2     2  GLU2        0.0504
    142 OE2         8.7860   -0.4420   34.5410 O.co2   2  GLU2       -0.5492
    143 OE1        10.3800   -0.2600   33.0270 O.co2   2  GLU2       -0.5492
    144 N           9.5490    5.5980   34.6530 N.am    3  LEU3       -0.1963
    145 CA         10.6250    6.6010   34.7440 C.3     3  LEU3        0.1728
    146 C          10.5410    7.8640   33.8910 C.2     3  LEU3        0.2616
    147 O          11.5600    8.5110   33.6050 O.2     3  LEU3       -0.2715
    148 CB         12.0070    5.9270   34.5660 C.3     3  LEU3        0.0311
    149 CG         12.2350    4.6830   35.4440 C.3     3  LEU3        0.0022
    150 CD1        13.6590    4.1820   35.2600 C.3     3  LEU3        0.0001
    151 CD2        11.9610    5.0140   36.9110 C.3     3  LEU3        0.0001
    152 N           9.3190    8.2180   33.5100 N.am    4  ASP4       -0.1959
    153 CA          9.0360    9.4300   32.7290 C.3     4  ASP4        0.1783
    154 C           9.9900    9.8390   31.6080 C.2     4  ASP4        0.2620
    155 O          10.1930   11.0370   31.3940 O.2     4  ASP4       -0.2715
    156 CB          8.8870   10.6280   33.6780 C.3     4  ASP4        0.0728
    157 CG          9.1660   10.2710   35.1260 C.2     4  ASP4        0.0526
    158 OD2         8.3120    9.5870   35.7500 O.co2   4  ASP4       -0.5491
    159 OD1        10.2450   10.6740   35.6390 O.co2   4  ASP4       -0.5491
    160 N          10.5520    8.8940   30.8650 N.am    5  ASP5       -0.1973
    161 CA         11.4670    9.2830   29.7870 C.3     5  ASP5        0.1651
    162 C          10.8290    9.1940   28.3880 C.2     5  ASP5        0.2291
    163 O          11.5130    8.9020   27.4070 O.2     5  ASP5       -0.2864
    164 CB         12.7450    8.4170   29.8280 C.3     5  ASP5        0.0714
    165 CG         13.8670    9.0310   30.6990 C.2     5  ASP5        0.0525
    166 OD2        13.5620    9.8250   31.6300 O.co2   5  ASP5       -0.5491
    167 OD1        15.0610    8.7110   30.4530 O.co2   5  ASP5       -0.5491
@<TRIPOS>UNITY_ATOM_ATTR
74 1
charge -1
142 1
charge -1
158 1
charge -1
166 1
charge -1
@<TRIPOS>BOND
     1     1     2    1
     2     2     5    1
     3     2     3    1
     4     3     4    2
     5     5     6    1
     6     6     7    1
     7     7     9   am
     8     7     8    2
     9    10    11    1
    10    11    12    1
    11    11    14    1
    12    12    13    2
    13    14    15    1
    14    15    16    1
    15    16    17    1
    16    17    18    2
    17    18    20    1
    18    18    19    1
    19    21    22    1
    20    22    23    1
    21    22    25    1
    22    23    24    2
    23    25    26    1
    24    25    27    1
    25    26    28    1
    26    29    30    1
    27    30    33    1
    28    30    31    1
    29    31    32    2
    30    33    34    1
    31    34    35    1
    32    35    36    1
    33    36    37    2
    34    37    38    1
    35    37    39    1
    36    40    41    1
    37    41    42    1
    38    41    44    1
    39    42    43    2
    40    42    45   am
    41    45    46    1
    42    46    47    1
    43    46    49    1
    44    47    56   am
    45    47    48    2
    46    49    50    1
    47    50    51    1
    48    51    52    1
    49    52    53    2
    50    53    55    1
    51    53    54    1
    52    56    57    1
    53    57    60    1
    54    57    58    1
    55    58    59    2
    56    58    63   am
    57    60    62    1
    58    60    61    1
    59    63    64    1
    60    64    65    1
    61    64    67    1
    62    65    66    2
    63    65    68   am
    64    68    69    1
    65    69    72    1
    66    69    70    1
    67    70    71    2
    68    72    73    1
    69    73    75   ar
    70    73    74   ar
    71    76    77    1
    72    77    80    1
    73    77    78    1
    74    78    79    2
    75    80    81    1
    76    81    83   ar
    77    81    82   ar
    78    82    84   ar
    79    83    85   ar
    80    84    85   ar
    81    86    87    1
    82    87    90    1
    83    87    88    1
    84    88    89    2
    85    90    91    1
    86    91    92    1
    87    92    93    1
    88    93    94    1
    89    95    96    1
    90    96    99    1
    91    96    97    1
    92    97    98    2
    93    99   100    1
    94   100   102   ar
    95   100   101   ar
    96   101   103   ar
    97   102   104   ar
    98   103   105   ar
    99   104   105   ar
   100   105   106    1
   101   107   108    1
   102   108   109    1
   103   108   111    1
   104   109   110    2
   105   109   116   am
   106   111   112    1
   107   112   113    1
   108   113   114    1
   109   114   115    1
   110   116   117    1
   111   117   118    1
   112   117   120    1
   113   118   119    2
   114   120   121    1
   115   121   122   ar
   116   121   123   ar
   117   122   124   ar
   118   123   125   ar
   119   124   126   ar
   120   125   126   ar
   121   127   128    1
   122   128   131    1
   123   128   129    1
   124   129   130    2
   125   129   135   am
   126   131   132    1
   127   132   133    1
   128   133   134    1
   129   135   136    1
   130   136   137    1
   131   136   139    1
   132   137   138    2
   133   137   144   am
   134   139   140    1
   135   140   141    1
   136   141   143   ar
   137   141   142   ar
   138   144   145    1
   139   145   146    1
   140   145   148    1
   141   146   152   am
   142   146   147    2
   143   148   149    1
   144   149   150    1
   145   149   151    1
   146   152   153    1
   147   153   154    1
   148   153   156    1
   149   154   160   am
   150   154   155    2
   151   156   157    1
   152   157   159   ar
   153   157   158   ar
   154   160   161    1
   155   161   162    1
   156   161   164    1
   157   162   163    2
   158   164   165    1
   159   165   167   ar
   160   165   166   ar
