@<TRIPOS>MOLECULE
./1blc/protein.pdb
 243 236 0 0 0
SMALL
GASTEIGER

@<TRIPOS>ATOM
      1 N           6.2660  -16.2370  -12.3560 N.3     1  ALA1       -0.1231
      2 CA          5.4690  -15.0600  -12.0020 C.3     1  ALA1        0.1694
      3 C           4.6240  -14.6130  -13.2160 C.2     1  ALA1        0.2593
      4 O           4.0740  -15.4930  -13.9300 O.2     1  ALA1       -0.2718
      5 CB          6.3700  -13.9390  -11.4960 C.3     1  ALA1        0.0304
      6 N           4.5860  -13.2950  -13.4480 N.am    2  SER2       -0.1938
      7 CA          3.8130  -12.7800  -14.5420 C.3     2  SER2        0.2055
      8 C           4.1410  -13.2420  -15.9090 C.2     2  SER2        0.2643
      9 O           3.2970  -12.8660  -16.7900 O.2     2  SER2       -0.2714
     10 CB          3.7470  -11.2670  -14.5980 C.3     2  SER2        0.2130
     11 OG          3.7060  -10.7840  -13.2300 O.3     2  SER2       -0.2179
     12 N           5.2580  -13.9000  -16.2090 N.am    3  THR3       -0.1950
     13 CA          5.5710  -14.3410  -17.5630 C.3     3  THR3        0.1897
     14 C           4.4640  -15.3110  -18.0490 C.2     3  THR3        0.2313
     15 O           4.1050  -15.4870  -19.2340 O.2     3  THR3       -0.2863
     16 CB          7.0090  -15.0110  -17.6110 C.3     3  THR3        0.1794
     17 OG1         7.0330  -16.1890  -16.7930 O.3     3  THR3       -0.2208
     18 CG2         8.1280  -13.9790  -17.2290 C.3     3  THR3        0.0378
     19 N           1.4720  -14.9760  -17.7710 N.3     1  LYS1       -0.1245
     20 CA          0.2350  -14.3130  -18.3210 C.3     1  LYS1        0.1561
     21 C           0.1290  -14.5360  -19.8030 C.2     1  LYS1        0.2260
     22 O          -0.9590  -14.5880  -20.4100 O.2     1  LYS1       -0.2867
     23 CB          0.2330  -12.7910  -18.0090 C.3     1  LYS1        0.0271
     24 CG         -0.0180  -12.6500  -16.4600 C.3     1  LYS1        0.0035
     25 CD         -0.0080  -11.1340  -16.0850 C.3     1  LYS1        0.0206
     26 CE         -0.6730  -10.9920  -14.6810 C.3     1  LYS1        0.1093
     27 NZ          0.3030  -10.8600  -13.5850 N.3     1  LYS1       -0.1314
     28 N          -5.2020   -7.9810   -5.8690 N.3     1  ALA1       -0.1231
     29 CA         -4.2090   -6.9280   -5.8080 C.3     1  ALA1        0.1694
     30 C          -3.5090   -6.7090   -7.1530 C.2     1  ALA1        0.2592
     31 O          -3.3700   -7.6750   -7.9250 O.2     1  ALA1       -0.2718
     32 CB         -3.1130   -7.2220   -4.7180 C.3     1  ALA1        0.0304
     33 N          -3.1400   -5.4480   -7.3510 N.am    2  TYR2       -0.1962
     34 CA         -2.4090   -5.0430   -8.5440 C.3     2  TYR2        0.1771
     35 C          -3.1980   -5.4970   -9.7970 C.2     2  TYR2        0.2620
     36 O          -2.8530   -6.4410  -10.5030 O.2     2  TYR2       -0.2715
     37 CB         -0.9680   -5.5970   -8.5760 C.3     2  TYR2        0.0574
     38 CG         -0.2560   -5.7250   -7.2410 C.ar    2  TYR2       -0.0198
     39 CD1         0.2910   -4.6290   -6.5910 C.ar    2  TYR2       -0.0009
     40 CD2        -0.2380   -6.9560   -6.5720 C.ar    2  TYR2       -0.0009
     41 CE1         0.9700   -4.7450   -5.3640 C.ar    2  TYR2        0.0417
     42 CE2         0.4120   -7.1110   -5.3620 C.ar    2  TYR2        0.0417
     43 CZ          1.0270   -5.9880   -4.7680 C.ar    2  TYR2        0.1957
     44 OH          1.7220   -6.2330   -3.5840 O.3     2  TYR2       -0.2866
     45 N          -4.3110   -4.7560   -9.9540 N.am    3  SER3       -0.1936
     46 CA         -5.2260   -4.9020  -11.0980 C.3     3  SER3        0.2040
     47 C          -5.6010   -3.4510  -11.4510 C.2     3  SER3        0.2485
     48 O          -6.6460   -2.9260  -11.0560 O.2     3  SER3       -0.2729
     49 CB         -6.4160   -5.7360  -10.7230 C.3     3  SER3        0.2129
     50 OG         -6.0630   -6.9360  -10.0830 O.3     3  SER3       -0.2179
     51 N          -4.6380   -2.7770  -12.0860 N.am    4  PRO4       -0.2726
     52 CA         -4.7720   -1.3630  -12.4180 C.3     4  PRO4        0.1402
     53 C          -5.9590   -1.1270  -13.3730 C.2     4  PRO4        0.2269
     54 O          -6.3780    0.0660  -13.4830 O.2     4  PRO4       -0.2865
     55 CB         -3.4680   -0.9850  -13.0850 C.3     4  PRO4        0.0296
     56 CG         -2.7990   -2.2510  -13.4810 C.3     4  PRO4        0.0237
     57 CD         -3.3360   -3.3250  -12.5480 C.3     4  PRO4        0.0939
     58 N          -4.1830   -8.0390  -18.9810 N.3     1  SER1       -0.1202
     59 CA         -3.1980   -8.9760  -18.4700 C.3     1  SER1        0.2020
     60 C          -1.8040   -8.6600  -19.1290 C.2     1  SER1        0.2619
     61 O          -0.7800   -8.5170  -18.4300 O.2     1  SER1       -0.2717
     62 CB         -3.5930  -10.3440  -18.8990 C.3     1  SER1        0.2103
     63 OG         -2.8950  -11.3960  -18.3340 O.3     1  SER1       -0.2182
     64 N          -1.8230   -8.6360  -20.4590 N.am    2  MET2       -0.1965
     65 CA         -0.5890   -8.4530  -21.2380 C.3     2  MET2        0.1736
     66 C           0.1030   -7.1140  -21.0140 C.2     2  MET2        0.2617
     67 O           1.3340   -7.2180  -20.6950 O.2     2  MET2       -0.2715
     68 CB         -0.6770   -8.8820  -22.6860 C.3     2  MET2        0.0427
     69 CG         -1.1270  -10.3060  -22.8460 C.3     2  MET2        0.0599
     70 SD         -0.0880  -11.5380  -22.0140 S.3     2  MET2       -0.1393
     71 CE          1.4620  -11.3610  -23.0180 C.3     2  MET2        0.0692
     72 N          -0.4600   -5.9700  -21.2430 N.am    3  THR3       -0.1937
     73 CA          0.1690   -4.6680  -21.1340 C.3     3  THR3        0.2028
     74 C           0.4340   -4.1580  -19.7470 C.2     3  THR3        0.2642
     75 O           1.2700   -3.2590  -19.5200 O.2     3  THR3       -0.2714
     76 CB         -0.8390   -3.6530  -21.8760 C.3     3  THR3        0.1808
     77 OG1        -1.0620   -4.2970  -23.1850 O.3     3  THR3       -0.2208
     78 CG2        -0.5000   -2.1720  -21.9500 C.3     3  THR3        0.0379
     79 N          -0.5010   -4.5430  -18.8050 N.am    4  TYR4       -0.1959
     80 CA         -0.4720   -3.9620  -17.4500 C.3     4  TYR4        0.1771
     81 C          -0.1680   -5.0320  -16.4280 C.2     4  TYR4        0.2620
     82 O          -0.1110   -4.7670  -15.2090 O.2     4  TYR4       -0.2715
     83 CB         -1.8110   -3.2210  -17.1630 C.3     4  TYR4        0.0574
     84 CG         -2.1090   -1.9920  -17.9740 C.ar    4  TYR4       -0.0198
     85 CD2        -1.5850   -0.7460  -17.6790 C.ar    4  TYR4       -0.0009
     86 CD1        -2.8760   -2.0760  -19.1460 C.ar    4  TYR4       -0.0009
     87 CE2        -1.8000    0.3730  -18.4670 C.ar    4  TYR4        0.0417
     88 CE1        -3.1700   -0.9780  -19.9620 C.ar    4  TYR4        0.0417
     89 CZ         -2.5450    0.2420  -19.6510 C.ar    4  TYR4        0.1957
     90 OH         -2.8540    1.3330  -20.4150 O.3     4  TYR4       -0.2866
     91 N           0.0280   -6.2380  -16.9260 N.am    5  SER5       -0.1936
     92 CA          0.1990   -7.3810  -16.0360 C.3     5  SER5        0.2055
     93 C          -0.9440   -7.3240  -14.9810 C.2     5  SER5        0.2643
     94 O          -0.7040   -7.6130  -13.7600 O.2     5  SER5       -0.2714
     95 CB          1.5720   -7.2900  -15.2260 C.3     5  SER5        0.2130
     96 OG          1.9250   -8.6800  -14.9330 O.3     5  SER5       -0.2179
     97 N          -2.1760   -7.2530  -15.3800 N.am    6  ASP6       -0.1959
     98 CA         -3.3740   -7.1330  -14.5250 C.3     6  ASP6        0.1783
     99 C          -3.7610   -8.4380  -13.9180 C.2     6  ASP6        0.2620
    100 O          -4.0800   -9.4140  -14.5890 O.2     6  ASP6       -0.2715
    101 CB         -4.4730   -6.4290  -15.3350 C.3     6  ASP6        0.0728
    102 CG         -5.5770   -5.9960  -14.3600 C.2     6  ASP6        0.0526
    103 OD2        -6.1220   -6.8440  -13.7260 O.co2   6  ASP6       -0.5491
    104 OD1        -5.8180   -4.7670  -14.3490 O.co2   6  ASP6       -0.5491
    105 N          -3.6250   -8.5170  -12.5660 N.am    7  ASN7       -0.1972
    106 CA         -3.8150   -9.7660  -11.8220 C.3     7  ASN7        0.1688
    107 C          -5.2790  -10.2810  -11.8950 C.2     7  ASN7        0.2292
    108 O          -5.3950  -11.5350  -12.0280 O.2     7  ASN7       -0.2864
    109 CB         -3.2530   -9.6540  -10.4000 C.3     7  ASN7        0.1181
    110 CG         -1.6830   -9.7530  -10.4080 C.2     7  ASN7        0.2629
    111 OD1        -1.0670  -10.1800  -11.3610 O.2     7  ASN7       -0.2716
    112 ND2        -1.0770   -9.2620   -9.3280 N.am    7  ASN7       -0.0877
    113 N          -3.5790  -15.9320   -8.9550 N.3     1  GLU1       -0.1231
    114 CA         -2.9670  -14.6450   -8.5750 C.3     1  GLU1        0.1697
    115 C          -3.5620  -14.2810   -7.2020 C.2     1  GLU1        0.2592
    116 O          -4.7090  -14.6340   -6.9030 O.2     1  GLU1       -0.2718
    117 CB         -3.4570  -13.5660   -9.5250 C.3     1  GLU1        0.0343
    118 CG         -3.1620  -13.8410  -11.0120 C.3     1  GLU1        0.0437
    119 CD         -1.6920  -13.6490  -11.3140 C.2     1  GLU1        0.0504
    120 OE2        -1.1260  -12.9080  -10.4940 O.co2   1  GLU1       -0.5492
    121 OE1        -1.1910  -14.1570  -12.2990 O.co2   1  GLU1       -0.5492
    122 N          -2.8110  -13.5630   -6.3860 N.am    2  ILE2       -0.1980
    123 CA         -1.4570  -13.0870   -6.5820 C.3     2  ILE2        0.1595
    124 C          -0.4210  -14.0220   -5.9510 C.2     2  ILE2        0.2287
    125 O           0.7900  -13.6690   -5.8810 O.2     2  ILE2       -0.2864
    126 CB         -1.3880  -11.6280   -5.9770 C.3     2  ILE2        0.0276
    127 CG1        -1.4980  -11.7280   -4.4230 C.3     2  ILE2        0.0022
    128 CG2        -2.3920  -10.5850   -6.5060 C.3     2  ILE2        0.0022
    129 CD1        -0.9760  -10.4410   -3.7090 C.3     2  ILE2        0.0001
    130 N           2.9220  -16.0520   -7.4930 N.3     1  ASN1       -0.1225
    131 CA          4.1480  -15.2590   -7.5640 C.3     1  ASN1        0.1785
    132 C           4.9270  -15.2210   -6.2400 C.2     1  ASN1        0.2597
    133 O           5.7060  -14.2740   -5.9820 O.2     1  ASN1       -0.2718
    134 CB          3.7680  -13.7810   -7.9290 C.3     1  ASN1        0.1169
    135 CG          2.8950  -13.5550   -9.1060 C.2     1  ASN1        0.2627
    136 OD1         3.3040  -13.6280  -10.2890 O.2     1  ASN1       -0.2716
    137 ND2         1.5960  -13.1730   -8.9170 N.am    1  ASN1       -0.0877
    138 N           4.6850  -16.1400   -5.3470 N.am    2  TYR2       -0.1976
    139 CA          5.2050  -16.2460   -4.0120 C.3     2  TYR2        0.1639
    140 C           6.2410  -17.3940   -3.9430 C.2     2  TYR2        0.2290
    141 O           5.9610  -18.4270   -3.2560 O.2     2  TYR2       -0.2864
    142 CB          4.1260  -16.6570   -3.0140 C.3     2  TYR2        0.0560
    143 CG          3.0410  -15.7030   -2.6300 C.ar    2  TYR2       -0.0198
    144 CD1         3.0160  -14.3890   -3.1000 C.ar    2  TYR2       -0.0009
    145 CD2         2.0150  -16.1360   -1.7250 C.ar    2  TYR2       -0.0009
    146 CE1         1.9950  -13.5210   -2.7380 C.ar    2  TYR2        0.0417
    147 CE2         1.0260  -15.2470   -1.3240 C.ar    2  TYR2        0.0417
    148 CZ          0.9970  -13.9670   -1.8620 C.ar    2  TYR2        0.1957
    149 OH          0.0010  -13.0610   -1.5700 O.3     2  TYR2       -0.2866
    150 N           4.2700   -3.2730  -25.4380 N.3     1  ASN1       -0.1240
    151 CA          4.4440   -3.2630  -23.9680 C.3     1  ASN1        0.1653
    152 C           5.8290   -2.6200  -23.6920 C.2     1  ASN1        0.2266
    153 O           6.8330   -3.1220  -24.2230 O.2     1  ASN1       -0.2867
    154 CB          4.4610   -4.7680  -23.6310 C.3     1  ASN1        0.1155
    155 CG          4.9040   -5.0270  -22.2070 C.2     1  ASN1        0.2627
    156 OD1         5.4720   -6.1280  -21.9780 O.2     1  ASN1       -0.2716
    157 ND2         4.6060   -4.0450  -21.3280 N.am    1  ASN1       -0.0877
    158 N           6.6030   -1.9580  -20.5970 N.3     1  SER1       -0.1202
    159 CA          6.8770   -2.4920  -19.2780 C.3     1  SER1        0.2020
    160 C           8.2220   -3.1520  -19.1160 C.2     1  SER1        0.2619
    161 O           8.8270   -2.9620  -18.0100 O.2     1  SER1       -0.2717
    162 CB          5.6870   -3.3260  -18.7930 C.3     1  SER1        0.2103
    163 OG          4.6590   -2.3230  -18.4310 O.3     1  SER1       -0.2182
    164 N           8.7830   -3.8640  -20.0640 N.am    2  GLY2       -0.1956
    165 CA         10.0850   -4.5360  -19.8980 C.3     2  GLY2        0.1869
    166 C          11.2100   -3.9940  -20.7850 C.2     2  GLY2        0.2309
    167 O          12.0170   -4.7820  -21.3270 O.2     2  GLY2       -0.2863
    168 N          14.7590   -4.8040  -19.8160 N.3     1  LEU1       -0.1245
    169 CA         15.0920   -6.2350  -19.7490 C.3     1  LEU1        0.1561
    170 C          15.7230   -6.6840  -21.0500 C.2     1  LEU1        0.2260
    171 O          16.6880   -5.9920  -21.4470 O.2     1  LEU1       -0.2867
    172 CB         13.9970   -7.0770  -19.1070 C.3     1  LEU1        0.0270
    173 CG         13.4090   -6.5950  -17.7960 C.3     1  LEU1        0.0019
    174 CD1        12.0410   -7.1730  -17.3990 C.3     1  LEU1        0.0001
    175 CD2        14.4300   -7.0310  -16.6900 C.3     1  LEU1        0.0001
    176 N           7.9380   -9.1760  -25.5940 N.3     1  ASP1       -0.1227
    177 CA          8.1410   -9.9360  -24.3020 C.3     1  ASP1        0.1748
    178 C           6.9250   -9.6950  -23.3700 C.2     1  ASP1        0.2596
    179 O           6.0860   -8.8480  -23.4850 O.2     1  ASP1       -0.2718
    180 CB          9.3920   -9.5130  -23.4920 C.3     1  ASP1        0.0701
    181 CG          9.1190   -8.1600  -22.8130 C.2     1  ASP1        0.0523
    182 OD1         8.7050   -7.2160  -23.5450 O.co2   1  ASP1       -0.5491
    183 OD2         9.4000   -7.9520  -21.6050 O.co2   1  ASP1       -0.5491
    184 N           7.1090  -10.4300  -22.2890 N.am    2  LYS2       -0.1966
    185 CA          6.2260  -10.3820  -21.1050 C.3     2  LYS2        0.1728
    186 C           7.2430  -10.5940  -19.9440 C.2     2  LYS2        0.2617
    187 O           7.8540  -11.6700  -19.9320 O.2     2  LYS2       -0.2715
    188 CB          5.2770  -11.5980  -21.0770 C.3     2  LYS2        0.0311
    189 CG          4.4250  -11.5520  -19.7520 C.3     2  LYS2        0.0038
    190 CD          3.5540  -10.3000  -19.7760 C.3     2  LYS2        0.0206
    191 CE          2.8500  -10.0520  -18.4470 C.3     2  LYS2        0.1093
    192 NZ          3.9630   -9.4220  -17.5490 N.3     2  LYS2       -0.1314
    193 N           7.3200   -9.6280  -19.1250 N.am    3  SER3       -0.1936
    194 CA          8.2720   -9.7000  -17.9570 C.3     3  SER3        0.2055
    195 C           7.5020  -10.1980  -16.7240 C.2     3  SER3        0.2644
    196 O           6.2630  -10.4460  -16.7590 O.2     3  SER3       -0.2714
    197 CB          8.8630   -8.3200  -17.8160 C.3     3  SER3        0.2130
    198 OG          8.0260   -7.3690  -17.1750 O.3     3  SER3       -0.2179
    199 N           8.2420  -10.4220  -15.6140 N.am    4  GLY4       -0.1939
    200 CA          7.5960  -10.8870  -14.3820 C.3     4  GLY4        0.2014
    201 C           8.6430  -10.6640  -13.2660 C.2     4  GLY4        0.2639
    202 O           9.8420  -10.4790  -13.5720 O.2     4  GLY4       -0.2714
    203 N           8.1170  -10.7390  -12.0590 N.am    5  GLN5       -0.1963
    204 CA          8.8820  -10.6440  -10.8190 C.3     5  GLN5        0.1733
    205 C           8.1040  -11.2000   -9.6260 C.2     5  GLN5        0.2616
    206 O           6.9850  -10.6870   -9.3010 O.2     5  GLN5       -0.2715
    207 CB          9.2620   -9.2000  -10.4830 C.3     5  GLN5        0.0408
    208 CG         10.5000   -9.2040   -9.6000 C.3     5  GLN5        0.0908
    209 CD         10.7880   -7.8770   -8.9520 C.2     5  GLN5        0.2608
    210 OE1        10.8010   -6.8010   -9.5270 O.2     5  GLN5       -0.2717
    211 NE2        11.0930   -7.9820   -7.6430 N.am    5  GLN5       -0.0878
    212 N           8.6680  -12.2020   -9.0020 N.am    6  ALA6       -0.1963
    213 CA          8.1690  -12.7850   -7.7680 C.3     6  ALA6        0.1728
    214 C           8.6300  -11.8630   -6.6200 C.2     6  ALA6        0.2616
    215 O           9.6530  -11.1720   -6.6130 O.2     6  ALA6       -0.2715
    216 CB          8.5910  -14.2140   -7.4800 C.3     6  ALA6        0.0334
    217 N           7.8210  -11.9580   -5.5570 N.am    7  ILE7       -0.1977
    218 CA          8.0600  -11.1820   -4.3440 C.3     7  ILE7        0.1596
    219 C           9.4290  -11.4250   -3.7160 C.2     7  ILE7        0.2287
    220 O          10.0340  -10.4950   -3.1750 O.2     7  ILE7       -0.2864
    221 CB          6.8430  -11.4670   -3.3230 C.3     7  ILE7        0.0276
    222 CG1         5.5470  -11.2620   -4.0890 C.3     7  ILE7        0.0022
    223 CG2         7.0410  -10.5240   -2.0810 C.3     7  ILE7        0.0022
    224 CD1         4.1520  -11.3590   -3.4130 C.3     7  ILE7        0.0001
    225 N          13.5170  -12.2450  -10.9340 N.3     1  ARG1       -0.1231
    226 CA         13.2850  -11.3740  -12.0760 C.3     1  ARG1        0.1694
    227 C          13.4300  -12.1450  -13.3630 C.2     1  ARG1        0.2592
    228 O          14.4160  -12.9320  -13.6480 O.2     1  ARG1       -0.2718
    229 CB         14.1480  -10.1570  -11.8670 C.3     1  ARG1        0.0321
    230 CG         13.9790   -9.0000  -12.7930 C.3     1  ARG1        0.0489
    231 CD         12.6380   -8.3800  -12.6840 C.3     1  ARG1        0.2205
    232 NE         12.4940   -7.1370  -13.4270 N.pl3   1  ARG1       -0.0865
    233 CZ         11.3920   -6.7210  -14.0290 C.cat   1  ARG1        0.5346
    234 NH2        10.3230   -7.4930  -14.2170 N.pl3   1  ARG1        0.1354
    235 NH1        11.3450   -5.4210  -14.2720 N.pl3   1  ARG1        0.1354
    236 N          12.4220  -11.9930  -14.2430 N.am    2  ASN2       -0.1974
    237 CA         12.2680  -12.6770  -15.4900 C.3     2  ASN2        0.1688
    238 C          11.8220  -11.7520  -16.6200 C.2     2  ASN2        0.2292
    239 O          11.3090  -10.6850  -16.4770 O.2     2  ASN2       -0.2864
    240 CB         11.2390  -13.8280  -15.4210 C.3     2  ASN2        0.1181
    241 CG         11.3140  -14.6400  -14.1540 C.2     2  ASN2        0.2629
    242 OD1        12.4490  -14.8190  -13.6070 O.2     2  ASN2       -0.2716
    243 ND2        10.1940  -15.0710  -13.6160 N.am    2  ASN2       -0.0877
@<TRIPOS>UNITY_ATOM_ATTR
103 1
charge -1
120 1
charge -1
182 1
charge -1
@<TRIPOS>BOND
     1     1     2    1
     2     2     3    1
     3     2     5    1
     4     3     4    2
     5     3     6   am
     6     6     7    1
     7     7     8    1
     8     7    10    1
     9     8     9    2
    10     8    12   am
    11    12    13    1
    12    13    14    1
    13    13    16    1
    14    14    15    2
    15    16    18    1
    16    16    17    1
    17    19    20    1
    18    20    21    1
    19    20    23    1
    20    21    22    2
    21    23    24    1
    22    24    25    1
    23    25    26    1
    24    26    27    1
    25    28    29    1
    26    29    30    1
    27    29    32    1
    28    30    31    2
    29    30    33   am
    30    33    34    1
    31    34    35    1
    32    34    37    1
    33    35    36    2
    34    35    45   am
    35    37    38    1
    36    38    39   ar
    37    38    40   ar
    38    39    41   ar
    39    40    42   ar
    40    41    43   ar
    41    42    43   ar
    42    43    44    1
    43    45    46    1
    44    46    47    1
    45    46    49    1
    46    47    51   am
    47    47    48    2
    48    49    50    1
    49    51    57    1
    50    51    52    1
    51    52    53    1
    52    52    55    1
    53    53    54    2
    54    55    56    1
    55    56    57    1
    56    58    59    1
    57    59    60    1
    58    59    62    1
    59    60    64   am
    60    60    61    2
    61    62    63    1
    62    64    65    1
    63    65    68    1
    64    65    66    1
    65    66    72   am
    66    66    67    2
    67    68    69    1
    68    69    70    1
    69    70    71    1
    70    72    73    1
    71    73    76    1
    72    73    74    1
    73    74    75    2
    74    74    79   am
    75    76    77    1
    76    76    78    1
    77    79    80    1
    78    80    83    1
    79    80    81    1
    80    81    91   am
    81    81    82    2
    82    83    84    1
    83    84    86   ar
    84    84    85   ar
    85    85    87   ar
    86    86    88   ar
    87    87    89   ar
    88    88    89   ar
    89    89    90    1
    90    91    92    1
    91    92    95    1
    92    92    93    1
    93    93    97   am
    94    93    94    2
    95    95    96    1
    96    97    98    1
    97    98   101    1
    98    98    99    1
    99    99   100    2
   100    99   105   am
   101   101   102    1
   102   102   104   ar
   103   102   103   ar
   104   105   106    1
   105   106   107    1
   106   106   109    1
   107   107   108    2
   108   109   110    1
   109   110   111    2
   110   110   112   am
   111   113   114    1
   112   114   117    1
   113   114   115    1
   114   115   116    2
   115   115   122   am
   116   117   118    1
   117   118   119    1
   118   119   121   ar
   119   119   120   ar
   120   122   123    1
   121   123   126    1
   122   123   124    1
   123   124   125    2
   124   126   128    1
   125   126   127    1
   126   127   129    1
   127   130   131    1
   128   131   134    1
   129   131   132    1
   130   132   133    2
   131   132   138   am
   132   134   135    1
   133   135   136    2
   134   135   137   am
   135   138   139    1
   136   139   140    1
   137   139   142    1
   138   140   141    2
   139   142   143    1
   140   143   144   ar
   141   143   145   ar
   142   144   146   ar
   143   145   147   ar
   144   146   148   ar
   145   147   148   ar
   146   148   149    1
   147   150   151    1
   148   151   152    1
   149   151   154    1
   150   152   153    2
   151   154   155    1
   152   155   156    2
   153   155   157   am
   154   158   159    1
   155   159   160    1
   156   159   162    1
   157   160   164   am
   158   160   161    2
   159   162   163    1
   160   164   165    1
   161   165   166    1
   162   166   167    2
   163   168   169    1
   164   169   170    1
   165   169   172    1
   166   170   171    2
   167   172   173    1
   168   173   174    1
   169   173   175    1
   170   176   177    1
   171   177   180    1
   172   177   178    1
   173   178   179    2
   174   178   184   am
   175   180   181    1
   176   181   182   ar
   177   181   183   ar
   178   184   185    1
   179   185   188    1
   180   185   186    1
   181   186   187    2
   182   186   193   am
   183   188   189    1
   184   189   190    1
   185   190   191    1
   186   191   192    1
   187   193   194    1
   188   194   197    1
   189   194   195    1
   190   195   196    2
   191   195   199   am
   192   197   198    1
   193   199   200    1
   194   200   201    1
   195   201   202    2
   196   201   203   am
   197   203   204    1
   198   204   207    1
   199   204   205    1
   200   205   206    2
   201   205   212   am
   202   207   208    1
   203   208   209    1
   204   209   210    2
   205   209   211   am
   206   212   213    1
   207   213   216    1
   208   213   214    1
   209   214   215    2
   210   214   217   am
   211   217   218    1
   212   218   219    1
   213   218   221    1
   214   219   220    2
   215   221   222    1
   216   221   223    1
   217   222   224    1
   218   225   226    1
   219   226   227    1
   220   226   229    1
   221   227   236   am
   222   227   228    2
   223   229   230    1
   224   230   231    1
   225   231   232    1
   226   232   233    2
   227   233   235    1
   228   233   234    1
   229   236   237    1
   230   237   238    1
   231   237   240    1
   232   238   239    2
   233   240   241    1
   234   241   243   am
   235   241   242    2
   236    10    11    1
