@<TRIPOS>MOLECULE
./1k54/protein.pdb
 199 192 0 0 0
SMALL
GASTEIGER

@<TRIPOS>ATOM
      1 N          22.8250    6.8940   35.9980 N.3     1  ALA1       -0.1231
      2 CA         21.6570    6.2210   35.4420 C.3     1  ALA1        0.1694
      3 C          20.4930    7.1740   35.6550 C.2     1  ALA1        0.2592
      4 O          20.6830    8.3880   35.5880 O.2     1  ALA1       -0.2718
      5 CB         21.4340    4.8890   36.1290 C.3     1  ALA1        0.0304
      6 N          19.2620    6.7390   35.7470 N.am    2  SER2       -0.1952
      7 CA         18.0040    7.3570   36.1100 C.3     2  SER2        0.1924
      8 C          17.9800    8.4810   37.1430 C.2     2  SER2        0.2314
      9 O          17.1000    9.3320   37.1070 O.2     2  SER2       -0.2863
     10 CB         16.8240    6.3710   36.1600 C.3     2  SER2        0.2116
     11 OG         16.7550    5.7390   34.8780 O.3     2  SER2       -0.2180
     12 N          17.8020   12.0940   35.8790 N.3     1  UNK1       -0.1245
     13 C          16.5760   12.7710   35.4900 C.3     1  UNK1        0.1561
     14 C          15.3910   11.8000   35.4720 C.3     1  UNK1        0.0271
     15 C          15.4580   10.8540   34.2840 C.3     1  UNK1        0.0038
     16 C          14.2860    9.8850   34.2170 C.3     1  UNK1        0.0234
     17 C          14.3960    8.9840   32.9620 C.3     1  UNK1        0.1135
     18 N          15.6200    8.1460   32.9630 N.am    1  UNK1       -0.2231
     19 C          16.3120   13.9910   36.3720 C.2     1  UNK1        0.2260
     20 O          15.6320   14.9210   35.9500 O.2     1  UNK1       -0.2867
     21 C          16.7030    8.4870   32.2580 C.2     1  UNK1        0.1457
     22 O          17.7200    7.7680   32.2760 O.co2   1  UNK1       -0.5307
     23 O          16.6920    9.5240   31.5730 O.co2   1  UNK1       -0.5307
     24 N          10.6430    0.8970   24.8750 N.3     1  ALA1       -0.1231
     25 CA         11.2270   -0.2780   25.5220 C.3     1  ALA1        0.1694
     26 C          10.3780   -0.8320   26.6570 C.2     1  ALA1        0.2591
     27 O          10.4330   -2.0320   26.9590 O.2     1  ALA1       -0.2718
     28 CB         12.6030    0.0470   26.0290 C.3     1  ALA1        0.0304
     29 N           9.6060    0.0440   27.2910 N.am    2  MET2       -0.1979
     30 CA          8.7260   -0.3530   28.3760 C.3     2  MET2        0.1605
     31 C           7.2950    0.0530   28.0640 C.2     2  MET2        0.2287
     32 O           7.0290    1.1730   27.6240 O.2     2  MET2       -0.2864
     33 CB          9.1780    0.2990   29.6820 C.3     2  MET2        0.0413
     34 CG         10.6290    0.0340   30.0300 C.3     2  MET2        0.0598
     35 SD         10.9360   -1.6920   30.4790 S.3     2  MET2       -0.1393
     36 CE         10.1000   -1.8060   32.0210 C.3     2  MET2        0.0692
     37 N           5.0370    0.7020   30.0880 N.3     1  ALA1       -0.1231
     38 CA          4.6760    1.7940   30.9940 C.3     1  ALA1        0.1694
     39 C           4.9660    3.1750   30.4010 C.2     1  ALA1        0.2592
     40 O           4.4370    4.1820   30.8750 O.2     1  ALA1       -0.2718
     41 CB          5.4130    1.6400   32.3140 C.3     1  ALA1        0.0304
     42 N           5.8110    3.2280   29.3790 N.am    2  TRP2       -0.1976
     43 CA          6.1660    4.4890   28.7420 C.3     2  TRP2        0.1637
     44 C           5.3060    4.7890   27.5150 C.2     2  TRP2        0.2290
     45 O           5.4130    5.8680   26.9490 O.2     2  TRP2       -0.2864
     46 CB          7.6310    4.4780   28.2850 C.3     2  TRP2        0.0537
     47 CG          8.6500    4.2320   29.3530 C.2     2  TRP2       -0.0165
     48 CD1         8.4750    4.3360   30.7040 C.3     2  TRP2        0.1477
     49 CD2        10.0080    3.8320   29.1550 C.ar    2  TRP2        0.0113
     50 NE1         9.6420    4.0190   31.3560 N.2     2  TRP2       -0.2659
     51 CE2        10.6010    3.7090   30.4260 C.ar    2  TRP2        0.0758
     52 CE3        10.7900    3.5620   28.0250 C.ar    2  TRP2        0.0009
     53 CZ2        11.9310    3.3330   30.5970 C.ar    2  TRP2        0.0187
     54 CZ3        12.1070    3.1900   28.1970 C.ar    2  TRP2        0.0001
     55 CH2        12.6660    3.0780   29.4740 C.ar    2  TRP2        0.0015
     56 N           9.3110   11.4250   35.1370 N.3     1  ILE1       -0.1231
     57 CA         10.3570   11.1800   36.1180 C.3     1  ILE1        0.1692
     58 C          10.0610    9.9160   36.9340 C.2     1  ILE1        0.2592
     59 O          10.9150    9.0380   37.0840 O.2     1  ILE1       -0.2718
     60 CB         10.5110   12.4060   37.0410 C.3     1  ILE1        0.0266
     61 CG1        11.0660   13.5890   36.2520 C.3     1  ILE1        0.0019
     62 CG2        11.4450   12.0810   38.1960 C.3     1  ILE1        0.0020
     63 CD1        10.9020   14.9350   36.9410 C.3     1  ILE1        0.0001
     64 N           8.8420    9.8130   37.4490 N.am    2  GLN2       -0.1966
     65 CA          8.4630    8.7090   38.3260 C.3     2  GLN2        0.1733
     66 C           8.5140    7.3350   37.6560 C.2     2  GLN2        0.2616
     67 O           8.8480    6.3480   38.3110 O.2     2  GLN2       -0.2715
     68 CB          7.0810    8.9680   38.9250 C.3     2  GLN2        0.0408
     69 CG          7.0270   10.2100   39.8180 C.3     2  GLN2        0.0908
     70 CD          7.2340    9.8960   41.2910 C.2     2  GLN2        0.2608
     71 OE1         6.9930    8.7670   41.7360 O.2     2  GLN2       -0.2717
     72 NE2         7.6540   10.9020   42.0590 N.am    2  GLN2       -0.0878
     73 N           8.1830    7.2620   36.3660 N.am    3  VAL3       -0.1963
     74 CA          8.2620    5.9870   35.6480 C.3     3  VAL3        0.1727
     75 C           9.6080    5.8220   34.9240 C.2     3  VAL3        0.2617
     76 O           9.8300    4.8150   34.2420 O.2     3  VAL3       -0.2715
     77 CB          7.0800    5.7800   34.6520 C.3     3  VAL3        0.0290
     78 CG2         5.7420    5.9480   35.3570 C.3     3  VAL3        0.0023
     79 CG1         7.1750    6.7120   33.4550 C.3     3  VAL3        0.0023
     80 N          10.5060    6.7910   35.1110 N.am    4  SER4       -0.1936
     81 CA         11.8480    6.7950   34.4990 C.3     4  SER4        0.2055
     82 C          11.7710    6.6240   32.9820 C.2     4  SER4        0.2643
     83 O          12.4310    5.7520   32.4190 O.2     4  SER4       -0.2714
     84 CB         12.7490    5.7020   35.0850 C.3     4  SER4        0.2130
     85 OG         12.9430    5.8540   36.4840 O.3     4  SER4       -0.2179
     86 N          10.9750    7.4700   32.3400 N.am    5  ALA5       -0.1963
     87 CA         10.7550    7.4000   30.8970 C.3     5  ALA5        0.1728
     88 C          11.9790    7.8970   30.1260 C.2     5  ALA5        0.2616
     89 O          12.0590    9.0530   29.7100 O.2     5  ALA5       -0.2715
     90 CB          9.5140    8.1810   30.5170 C.3     5  ALA5        0.0334
     91 N          12.9250    6.9950   29.9330 N.am    6  VAL6       -0.1964
     92 CA         14.1860    7.3040   29.2650 C.3     6  VAL6        0.1712
     93 C          14.0440    8.0970   27.9410 C.2     6  VAL6        0.2458
     94 O          14.6900    9.1210   27.7800 O.2     6  VAL6       -0.2730
     95 CB         15.0300    6.0240   29.0510 C.3     6  VAL6        0.0289
     96 CG1        16.3630    6.3660   28.4120 C.3     6  VAL6        0.0023
     97 CG2        15.2640    5.3000   30.3740 C.3     6  VAL6        0.0023
     98 N          13.2390    7.6420   26.9830 N.am    7  PRO7       -0.2727
     99 CA         13.1300    8.3720   25.7040 C.3     7  PRO7        0.1402
    100 C          12.7010    9.8320   25.8360 C.2     7  PRO7        0.2269
    101 O          13.1580   10.6680   25.0470 O.2     7  PRO7       -0.2865
    102 CB         12.0970    7.5530   24.9110 C.3     7  PRO7        0.0296
    103 CG         11.4180    6.7100   25.9250 C.3     7  PRO7        0.0237
    104 CD         12.4510    6.4000   26.9620 C.3     7  PRO7        0.0939
    105 N          15.8400   11.6440   26.9230 N.3     1  GLN1       -0.1245
    106 CA         16.8390   11.6510   25.8620 C.3     1  GLN1        0.1566
    107 C          16.5360   12.7940   24.8930 C.2     1  GLN1        0.2260
    108 O          17.4400   13.5220   24.4640 O.2     1  GLN1       -0.2867
    109 CB         16.8880   10.2980   25.1430 C.3     1  GLN1        0.0367
    110 CG         17.5810    9.2170   25.9550 C.3     1  GLN1        0.0905
    111 CD         17.5550    7.8460   25.2980 C.2     1  GLN1        0.2608
    112 OE1        16.4950    7.3490   24.9120 O.2     1  GLN1       -0.2717
    113 NE2        18.7190    7.2240   25.1970 N.am    1  GLN1       -0.0878
    114 N          23.9030    7.1600   30.9940 N.3     1  LEU1       -0.1231
    115 CA         23.4650    5.7600   30.9410 C.3     1  LEU1        0.1693
    116 C          24.5890    4.7840   30.5900 C.2     1  LEU1        0.2591
    117 O          24.7210    3.7140   31.1930 O.2     1  LEU1       -0.2718
    118 CB         22.3920    5.6190   29.8500 C.3     1  LEU1        0.0284
    119 CG         21.2680    6.6550   29.8140 C.3     1  LEU1        0.0019
    120 CD1        20.4640    6.6230   28.5240 C.3     1  LEU1        0.0001
    121 CD2        20.3670    6.3840   30.9730 C.3     1  LEU1        0.0001
    122 N          25.3760    5.1510   29.5850 N.am    2  GLU2       -0.1979
    123 CA         26.4350    4.2910   29.0720 C.3     2  GLU2        0.1600
    124 C          27.7440    5.0400   28.8830 C.2     2  GLU2        0.2287
    125 O          28.7520    4.4320   28.5180 O.2     2  GLU2       -0.2864
    126 CB         26.0190    3.7150   27.7090 C.3     2  GLU2        0.0356
    127 CG         24.7050    2.9490   27.7110 C.3     2  GLU2        0.0439
    128 CD         24.1920    2.6380   26.3150 C.2     2  GLU2        0.0504
    129 OE1        24.9050    2.9180   25.3280 O.co2   2  GLU2       -0.5492
    130 OE2        23.0630    2.1160   26.2070 O.co2   2  GLU2       -0.5492
    131 N          14.2920    9.2270   44.1170 N.3     1  LYS1       -0.1231
    132 CA         14.4920    8.7710   42.7380 C.3     1  LYS1        0.1693
    133 C          15.4120    7.5620   42.6940 C.2     1  LYS1        0.2593
    134 O          16.4560    7.5340   43.3670 O.2     1  LYS1       -0.2718
    135 CB         15.1100    9.8790   41.8920 C.3     1  LYS1        0.0285
    136 CG         15.2770    9.5290   40.4150 C.3     1  LYS1        0.0035
    137 CD         13.9450    9.6360   39.6690 C.3     1  LYS1        0.0206
    138 CE         13.9630    8.8510   38.3590 C.3     1  LYS1        0.1093
    139 NZ         13.9660    7.3710   38.5680 N.3     1  LYS1       -0.1314
    140 N          15.0430    6.5750   41.8800 N.am    2  THR2       -0.1939
    141 CA         15.8570    5.3770   41.7010 C.3     2  THR2        0.2028
    142 C          16.6840    5.4470   40.4190 C.2     2  THR2        0.2643
    143 O          16.4310    6.2780   39.5350 O.2     2  THR2       -0.2714
    144 CB         14.9740    4.1070   41.6120 C.3     2  THR2        0.1808
    145 OG1        14.0680    4.2290   40.5080 O.3     2  THR2       -0.2208
    146 CG2        14.0800    3.9320   42.8310 C.3     2  THR2        0.0379
    147 N          17.6520    4.5430   40.3170 N.am    3  GLY3       -0.1939
    148 CA         18.4740    4.4050   39.1260 C.3     3  GLY3        0.2014
    149 C          18.9190    2.9600   38.9900 C.2     3  GLY3        0.2639
    150 O          19.0510    2.2580   39.9950 O.2     3  GLY3       -0.2714
    151 N          19.1500    2.5170   37.7540 N.am    4  PHE4       -0.1959
    152 CA         19.5740    1.1450   37.4760 C.3     4  PHE4        0.1771
    153 C          20.2930    1.1260   36.1240 C.2     4  PHE4        0.2620
    154 O          19.6530    1.1990   35.0830 O.2     4  PHE4       -0.2715
    155 CB         18.3450    0.2260   37.4480 C.3     4  PHE4        0.0574
    156 CG         18.6420   -1.2130   37.0970 C.ar    4  PHE4       -0.0200
    157 CD2        19.7820   -1.8420   37.5590 C.ar    4  PHE4       -0.0042
    158 CD1        17.7520   -1.9390   36.3250 C.ar    4  PHE4       -0.0042
    159 CE2        20.0380   -3.1650   37.2420 C.ar    4  PHE4       -0.0003
    160 CE1        18.0030   -3.2630   36.0040 C.ar    4  PHE4       -0.0003
    161 CZ         19.1420   -3.8740   36.4630 C.ar    4  PHE4       -0.0000
    162 N          21.6180    1.0300   36.1350 N.am    5  SER5       -0.1936
    163 CA         22.3900    1.1030   34.8890 C.3     5  SER5        0.2055
    164 C          22.2810   -0.1560   34.0270 C.2     5  SER5        0.2643
    165 O          22.4560   -0.1030   32.8050 O.2     5  SER5       -0.2714
    166 CB         23.8640    1.3990   35.1840 C.3     5  SER5        0.2130
    167 OG         24.5210    0.2780   35.7530 O.3     5  SER5       -0.2179
    168 N          21.9840   -1.2780   34.6680 N.am    6  GLY6       -0.1954
    169 CA         21.8940   -2.5560   33.9930 C.3     6  GLY6        0.1869
    170 C          22.6280   -3.5810   34.8280 C.2     6  GLY6        0.2309
    171 O          23.1150   -3.2630   35.9080 O.2     6  GLY6       -0.2863
    172 N          19.0920   -8.8380   38.0250 N.3     1  GLU1       -0.1245
    173 CA         17.9380   -7.9520   38.1260 C.3     1  GLU1        0.1565
    174 C          17.0060   -8.2810   39.2940 C.2     1  GLU1        0.2260
    175 O          16.2870   -7.4080   39.7790 O.2     1  GLU1       -0.2867
    176 CB         17.1520   -7.9730   36.8110 C.3     1  GLU1        0.0329
    177 CG         16.4140   -6.6790   36.5070 C.3     1  GLU1        0.0437
    178 CD         16.0240   -6.5530   35.0440 C.2     1  GLU1        0.0504
    179 OE1        16.8620   -6.8670   34.1670 O.co2   1  GLU1       -0.5492
    180 OE2        14.8810   -6.1300   34.7690 O.co2   1  GLU1       -0.5492
    181 N          17.2070   -6.0750   42.4990 N.3     1  LEU1       -0.1245
    182 CA         16.9050   -4.6470   42.3830 C.3     1  LEU1        0.1561
    183 C          16.1830   -3.9970   43.5800 C.2     1  LEU1        0.2260
    184 O          16.5620   -2.9080   43.9990 O.2     1  LEU1       -0.2867
    185 CB         16.1240   -4.3790   41.0900 C.3     1  LEU1        0.0270
    186 CG         16.1390   -2.9370   40.5720 C.3     1  LEU1        0.0019
    187 CD2        17.5680   -2.4220   40.3860 C.3     1  LEU1        0.0001
    188 CD1        15.3590   -2.8250   39.2660 C.3     1  LEU1        0.0001
    189 N          17.7470   -1.9260   46.5540 N.3     1  ARG1       -0.1245
    190 CA         18.1510   -0.5190   46.4890 C.3     1  ARG1        0.1563
    191 C          17.2340    0.3670   47.3300 C.2     1  ARG1        0.2260
    192 O          17.5990    1.4860   47.6820 O.2     1  ARG1       -0.2867
    193 CB         18.2010   -0.0160   45.0420 C.3     1  ARG1        0.0307
    194 CG         16.8430    0.2230   44.4180 C.3     1  ARG1        0.0489
    195 CD         16.8850    0.4550   42.9150 C.3     1  ARG1        0.2205
    196 NE         15.5540    0.4200   42.3170 N.pl3   1  ARG1       -0.0865
    197 CZ         15.2860    0.7230   41.0520 C.cat   1  ARG1        0.5346
    198 NH2        14.0420    0.6510   40.6050 N.pl3   1  ARG1        0.1354
    199 NH1        16.2570    1.0870   40.2240 N.pl3   1  ARG1        0.1354
@<TRIPOS>UNITY_ATOM_ATTR
22 1
charge -1
129 1
charge -1
179 1
charge -1
@<TRIPOS>BOND
     1     1     2    1
     2     2     3    1
     3     2     5    1
     4     3     4    2
     5     3     6   am
     6     6     7    1
     7     7    10    1
     8     7     8    1
     9     8     9    2
    10    10    11    1
    11    12    13    1
    12    13    14    1
    13    13    19    1
    14    14    15    1
    15    15    16    1
    16    16    17    1
    17    17    18    1
    18    18    21   am
    19    19    20    2
    20    21    23   ar
    21    21    22   ar
    22    24    25    1
    23    25    28    1
    24    25    26    1
    25    26    27    2
    26    26    29   am
    27    29    30    1
    28    30    31    1
    29    30    33    1
    30    31    32    2
    31    33    34    1
    32    34    35    1
    33    35    36    1
    34    37    38    1
    35    38    39    1
    36    38    41    1
    37    39    42   am
    38    39    40    2
    39    42    43    1
    40    43    44    1
    41    43    46    1
    42    44    45    2
    43    46    47    1
    44    47    49    2
    45    47    48    1
    46    48    50    1
    47    49    52   ar
    48    49    51   ar
    49    50    51    2
    50    51    53   ar
    51    52    54   ar
    52    53    55   ar
    53    54    55   ar
    54    56    57    1
    55    57    58    1
    56    57    60    1
    57    58    59    2
    58    58    64   am
    59    60    61    1
    60    60    62    1
    61    61    63    1
    62    64    65    1
    63    65    66    1
    64    65    68    1
    65    66    73   am
    66    66    67    2
    67    68    69    1
    68    69    70    1
    69    70    71    2
    70    70    72   am
    71    73    74    1
    72    74    77    1
    73    74    75    1
    74    75    76    2
    75    75    80   am
    76    77    79    1
    77    77    78    1
    78    80    81    1
    79    81    82    1
    80    81    84    1
    81    82    86   am
    82    82    83    2
    83    84    85    1
    84    86    87    1
    85    87    88    1
    86    87    90    1
    87    88    89    2
    88    88    91   am
    89    91    92    1
    90    92    93    1
    91    92    95    1
    92    93    98   am
    93    93    94    2
    94    95    96    1
    95    95    97    1
    96    98    99    1
    97    98   104    1
    98    99   102    1
    99    99   100    1
   100   100   101    2
   101   102   103    1
   102   103   104    1
   103   105   106    1
   104   106   107    1
   105   106   109    1
   106   107   108    2
   107   109   110    1
   108   110   111    1
   109   111   112    2
   110   111   113   am
   111   114   115    1
   112   115   118    1
   113   115   116    1
   114   116   122   am
   115   116   117    2
   116   118   119    1
   117   119   120    1
   118   119   121    1
   119   122   123    1
   120   123   126    1
   121   123   124    1
   122   124   125    2
   123   126   127    1
   124   127   128    1
   125   128   129   ar
   126   128   130   ar
   127   131   132    1
   128   132   135    1
   129   132   133    1
   130   133   140   am
   131   133   134    2
   132   135   136    1
   133   136   137    1
   134   137   138    1
   135   138   139    1
   136   140   141    1
   137   141   142    1
   138   141   144    1
   139   142   143    2
   140   142   147   am
   141   144   145    1
   142   144   146    1
   143   147   148    1
   144   148   149    1
   145   149   151   am
   146   149   150    2
   147   151   152    1
   148   152   153    1
   149   152   155    1
   150   153   154    2
   151   153   162   am
   152   155   156    1
   153   156   158   ar
   154   156   157   ar
   155   157   159   ar
   156   158   160   ar
   157   159   161   ar
   158   160   161   ar
   159   162   163    1
   160   163   164    1
   161   163   166    1
   162   164   165    2
   163   164   168   am
   164   166   167    1
   165   168   169    1
   166   169   170    1
   167   170   171    2
   168   172   173    1
   169   173   176    1
   170   173   174    1
   171   174   175    2
   172   176   177    1
   173   177   178    1
   174   178   179   ar
   175   178   180   ar
   176   181   182    1
   177   182   185    1
   178   182   183    1
   179   183   184    2
   180   185   186    1
   181   186   188    1
   182   186   187    1
   183   189   190    1
   184   190   193    1
   185   190   191    1
   186   191   192    2
   187   193   194    1
   188   194   195    1
   189   195   196    1
   190   196   197    2
   191   197   199    1
   192   197   198    1
