@<TRIPOS>MOLECULE
./3byn/protein.pdb
 294 283 0 0 0
SMALL
GASTEIGER

@<TRIPOS>ATOM
      1 N          45.6330   40.5900    7.3780 N.3     1  TRP1       -0.1227
      2 CA         45.7570   40.1040    8.7480 C.3     1  TRP1        0.1734
      3 C          46.1440   38.6280    8.8570 C.2     1  TRP1        0.2595
      4 O          47.2080   38.2530    8.3590 O.2     1  TRP1       -0.2718
      5 CB         44.5750   40.5420    9.6380 C.3     1  TRP1        0.0524
      6 CG         43.1860   40.1230    9.2320 C.2     1  TRP1       -0.0167
      7 CD1        42.4130   39.1750    9.8400 C.3     1  TRP1        0.1477
      8 CD2        42.3880   40.6720    8.1710 C.ar    1  TRP1        0.0113
      9 NE1        41.1920   39.0910    9.2210 N.2     1  TRP1       -0.2659
     10 CE2        41.1460   39.9970    8.1940 C.ar    1  TRP1        0.0758
     11 CE3        42.6000   41.6680    7.2050 C.ar    1  TRP1        0.0009
     12 CZ2        40.1250   40.2710    7.2760 C.ar    1  TRP1        0.0187
     13 CZ3        41.5750   41.9490    6.2960 C.ar    1  TRP1        0.0001
     14 CH2        40.3550   41.2500    6.3400 C.ar    1  TRP1        0.0015
     15 N          45.3200   37.8040    9.5130 N.am    2  ASP2       -0.1976
     16 CA         45.5990   36.3680    9.6870 C.3     2  ASP2        0.1651
     17 C          46.3080   35.7550    8.4810 C.2     2  ASP2        0.2291
     18 O          45.7660   35.7540    7.3730 O.2     2  ASP2       -0.2864
     19 CB         44.2990   35.5920    9.8810 C.3     2  ASP2        0.0714
     20 CG         43.7360   35.7010   11.2770 C.2     2  ASP2        0.0525
     21 OD2        44.0800   36.6400   12.0270 O.co2   2  ASP2       -0.5491
     22 OD1        42.9170   34.8240   11.6120 O.co2   2  ASP2       -0.5491
     23 N          44.3120   36.5050    5.0380 N.3     1  LEU1       -0.1245
     24 CA         43.0430   37.2200    4.9480 C.3     1  LEU1        0.1561
     25 C          43.3400   38.6640    4.5990 C.2     1  LEU1        0.2260
     26 O          44.2370   39.2800    5.1820 O.2     1  LEU1       -0.2867
     27 CB         42.2440   37.1340    6.2530 C.3     1  LEU1        0.0270
     28 CG         41.9330   35.7510    6.8420 C.3     1  LEU1        0.0019
     29 CD2        40.9570   35.9000    8.0010 C.3     1  LEU1        0.0001
     30 CD1        41.3860   34.7750    5.7990 C.3     1  LEU1        0.0001
     31 N          34.5300   45.8500    7.3210 N.3     1  ALA1       -0.1231
     32 CA         34.9340   44.7610    8.2220 C.3     1  ALA1        0.1694
     33 C          34.4320   43.3810    7.7790 C.2     1  ALA1        0.2592
     34 O          34.9750   42.3520    8.1980 O.2     1  ALA1       -0.2718
     35 CB         34.4860   45.0610    9.6490 C.3     1  ALA1        0.0304
     36 N          33.4000   43.3660    6.9370 N.am    2  ASP2       -0.1976
     37 CA         32.8130   42.1220    6.4410 C.3     2  ASP2        0.1651
     38 C          33.3590   41.7390    5.0610 C.2     2  ASP2        0.2291
     39 O          32.8390   40.8320    4.4180 O.2     2  ASP2       -0.2864
     40 CB         31.2810   42.2280    6.3980 C.3     2  ASP2        0.0714
     41 CG         30.6620   42.4650    7.7750 C.2     2  ASP2        0.0525
     42 OD2        31.2720   42.0940    8.7970 O.co2   2  ASP2       -0.5491
     43 OD1        29.5490   43.0250    7.8340 O.co2   2  ASP2       -0.5491
     44 N          36.2530   39.9950    3.5810 N.3     1  THR1       -0.1218
     45 CA         37.3390   39.0780    3.9170 C.3     1  THR1        0.1862
     46 C          37.4670   37.9850    2.8510 C.2     1  THR1        0.2287
     47 O          36.5480   37.1880    2.6560 O.2     1  THR1       -0.2866
     48 CB         37.1210   38.4270    5.3100 C.3     1  THR1        0.1770
     49 OG1        36.7760   39.4320    6.2790 O.3     1  THR1       -0.2211
     50 CG2        38.3720   37.6900    5.7670 C.3     1  THR1        0.0375
     51 N          31.9640   35.1500    3.3600 N.3     1  GLN1       -0.1231
     52 CA         33.3440   35.4820    3.7410 C.3     1  GLN1        0.1698
     53 C          34.2460   34.2450    3.8190 C.2     1  GLN1        0.2592
     54 O          33.7810   33.1410    4.1010 O.2     1  GLN1       -0.2718
     55 CB         33.3790   36.2160    5.0880 C.3     1  GLN1        0.0381
     56 CG         32.8870   37.6510    5.0570 C.3     1  GLN1        0.0905
     57 CD         33.0260   38.3430    6.4010 C.2     1  GLN1        0.2608
     58 OE1        34.1350   38.6370    6.8460 O.2     1  GLN1       -0.2717
     59 NE2        31.8970   38.6160    7.0500 N.am    1  GLN1       -0.0878
     60 N          35.5390   34.4480    3.5780 N.am    2  GLU2       -0.1966
     61 CA         36.5350   33.3860    3.6800 C.3     2  GLU2        0.1731
     62 C          37.4170   33.6730    4.8840 C.2     2  GLU2        0.2616
     63 O          38.1520   34.6610    4.8940 O.2     2  GLU2       -0.2715
     64 CB         37.3850   33.3140    2.4070 C.3     2  GLU2        0.0370
     65 CG         36.5950   32.9910    1.1360 C.3     2  GLU2        0.0440
     66 CD         37.3120   33.4030   -0.1430 C.2     2  GLU2        0.0504
     67 OE2        38.5320   33.6800   -0.0960 O.co2   2  GLU2       -0.5492
     68 OE1        36.6520   33.4380   -1.2020 O.co2   2  GLU2       -0.5492
     69 N          37.3250   32.8190    5.9020 N.am    3  TRP3       -0.1960
     70 CA         38.1040   32.9930    7.1270 C.3     3  TRP3        0.1768
     71 C          39.2480   31.9770    7.2020 C.2     3  TRP3        0.2620
     72 O          39.3930   31.1370    6.3110 O.2     3  TRP3       -0.2715
     73 CB         37.1840   32.9570    8.3610 C.3     3  TRP3        0.0553
     74 CG         36.3050   34.1920    8.4910 C.2     3  TRP3       -0.0136
     75 CD1        36.1960   35.2210    7.5970 C.2     3  TRP3        0.0907
     76 CD2        35.4040   34.5040    9.5630 C.3     3  TRP3        0.0819
     77 NE1        35.3030   36.1570    8.0510 N.2     3  TRP3       -0.2482
     78 CE2        34.7990   35.7430    9.2550 C.2     3  TRP3        0.0665
     79 CE3        35.0580   33.8630   10.7610 C.2     3  TRP3       -0.0164
     80 CZ2        33.8650   36.3550   10.0980 C.2     3  TRP3        0.0153
     81 CZ3        34.1230   34.4750   11.6010 C.2     3  TRP3       -0.0038
     82 CH2        33.5420   35.7050   11.2620 C.2     3  TRP3        0.0009
     83 N          40.0480   32.0640    8.2630 N.am    4  SER4       -0.1950
     84 CA         41.3770   31.4470    8.3160 C.3     4  SER4        0.1924
     85 CB         41.4130   29.9200    8.2630 C.2     4  SER4        0.2314
     86 OG         40.4030   29.2450    8.4950 O.2     4  SER4       -0.2863
     87 C          42.1370   31.9280    9.5580 C.3     4  SER4        0.2116
     88 O          42.2270   33.3340    9.5780 O.3     4  SER4       -0.2180
     89 N          37.9230   28.4860    6.4030 N.3     1  THR1       -0.1218
     90 CA         36.6130   28.6140    7.0210 C.3     1  THR1        0.1862
     91 C          35.6120   29.2910    6.0910 C.2     1  THR1        0.2287
     92 O          35.7680   30.4590    5.7220 O.2     1  THR1       -0.2866
     93 CB         36.7020   29.4180    8.3350 C.3     1  THR1        0.1770
     94 OG1        37.7480   28.8800    9.1520 O.3     1  THR1       -0.2211
     95 CG2        35.3660   29.3920    9.0940 C.3     1  THR1        0.0375
     96 N          32.4960   31.0950    5.9310 N.3     1  PHE1       -0.1241
     97 CA         31.6010   31.8760    6.7800 C.3     1  PHE1        0.1605
     98 C          30.3740   32.3190    5.9940 C.2     1  PHE1        0.2264
     99 O          30.4930   32.9150    4.9170 O.2     1  PHE1       -0.2867
    100 CB         32.3260   33.0980    7.3610 C.3     1  PHE1        0.0534
    101 CG         31.4440   33.9970    8.1970 C.ar    1  PHE1       -0.0203
    102 CD2        31.2800   33.7610    9.5600 C.ar    1  PHE1       -0.0042
    103 CD1        30.7850   35.0830    7.6220 C.ar    1  PHE1       -0.0042
    104 CE2        30.4740   34.5920   10.3360 C.ar    1  PHE1       -0.0003
    105 CE1        29.9750   35.9170    8.3870 C.ar    1  PHE1       -0.0003
    106 CZ         29.8210   35.6770    9.7470 C.ar    1  PHE1       -0.0000
    107 N          25.9790   33.4350   10.7110 N.3     1  GLY1       -0.1225
    108 CA         27.4000   33.2100   10.9620 C.3     1  GLY1        0.1811
    109 C          27.8210   31.7500   11.0070 C.2     1  GLY1        0.2280
    110 O          28.7080   31.3840   11.7830 O.2     1  GLY1       -0.2866
    111 N          29.7850   28.5250   10.2000 N.3     1  GLN1       -0.1245
    112 CA         31.1850   28.3100    9.8450 C.3     1  GLN1        0.1566
    113 C          31.4210   26.8340    9.5160 C.2     1  GLN1        0.2260
    114 O          31.0740   25.9490   10.3070 O.2     1  GLN1       -0.2867
    115 CB         32.1040   28.7710   10.9760 C.3     1  GLN1        0.0367
    116 CG         32.1400   30.2800   11.1790 C.3     1  GLN1        0.0905
    117 CD         32.3600   30.6640   12.6280 C.2     1  GLN1        0.2608
    118 OE1        33.4390   30.4510   13.1850 O.2     1  GLN1       -0.2717
    119 NE2        31.3350   31.2370   13.2470 N.am    1  GLN1       -0.0878
    120 N          23.2060   35.8880   17.8860 N.3     1  TYR1       -0.1241
    121 CA         24.1070   36.9390   18.3680 C.3     1  TYR1        0.1605
    122 C          23.6320   37.6490   19.6390 C.2     1  TYR1        0.2264
    123 O          24.4480   37.9810   20.5040 O.2     1  TYR1       -0.2867
    124 CB         24.3930   37.9610   17.2560 C.3     1  TYR1        0.0534
    125 CG         25.2190   37.4070   16.1110 C.ar    1  TYR1       -0.0201
    126 CD2        26.6080   37.3170   16.2080 C.ar    1  TYR1       -0.0009
    127 CD1        24.6120   36.9750   14.9300 C.ar    1  TYR1       -0.0009
    128 CE2        27.3750   36.8090   15.1570 C.ar    1  TYR1        0.0417
    129 CE1        25.3700   36.4610   13.8700 C.ar    1  TYR1        0.0417
    130 CZ         26.7510   36.3850   13.9940 C.ar    1  TYR1        0.1957
    131 OH         27.5120   35.8850   12.9620 O.3     1  TYR1       -0.2866
    132 N          29.0010   32.7180   21.4830 N.3     1  ASN1       -0.1225
    133 CA         29.9710   32.8990   20.4160 C.3     1  ASN1        0.1785
    134 C          30.2240   31.5590   19.7400 C.2     1  ASN1        0.2597
    135 O          30.9890   30.7340   20.2440 O.2     1  ASN1       -0.2718
    136 CB         31.2760   33.5010   20.9680 C.3     1  ASN1        0.1169
    137 CG         32.2840   33.8480   19.8760 C.2     1  ASN1        0.2627
    138 OD1        31.9790   33.8000   18.6830 O.2     1  ASN1       -0.2716
    139 ND2        33.4940   34.2170   20.2890 N.am    1  ASN1       -0.0877
    140 N          29.5530   31.3430   18.6100 N.am    2  HIS2       -0.1961
    141 CA         29.7110   30.1050   17.8530 C.3     2  HIS2        0.1787
    142 C          30.9150   30.1910   16.9280 C.2     2  HIS2        0.2620
    143 O          31.0630   31.1440   16.1520 O.2     2  HIS2       -0.2715
    144 CB         28.4480   29.7420   17.0600 C.3     2  HIS2        0.0785
    145 CG         28.6490   28.6010   16.1110 C.ar    2  HIS2        0.0821
    146 ND1        28.9740   27.3300   16.5350 N.ar    2  HIS2       -0.2267
    147 CD2        28.6050   28.5460   14.7600 C.ar    2  HIS2        0.1154
    148 CE1        29.1170   26.5410   15.4860 C.ar    2  HIS2        0.1986
    149 NE2        28.8950   27.2530   14.3970 N.ar    2  HIS2       -0.2212
    150 N          31.7810   29.1900   17.0350 N.am    3  THR3       -0.1951
    151 CA         32.9840   29.1250   16.2270 C.3     3  THR3        0.1897
    152 C          33.1690   27.7160   15.6750 C.2     3  THR3        0.2313
    153 O          32.8780   26.7260   16.3520 O.2     3  THR3       -0.2863
    154 CB         34.2520   29.5190   17.0280 C.3     3  THR3        0.1794
    155 OG1        34.6400   28.4350   17.8770 O.3     3  THR3       -0.2208
    156 CG2        34.0250   30.7830   17.8770 C.3     3  THR3        0.0378
    157 N          36.2580   26.9690   12.9870 N.3     1  ARG1       -0.1231
    158 CA         37.1430   27.7010   12.0970 C.3     1  ARG1        0.1694
    159 C          38.6230   27.4440   12.3300 C.2     1  ARG1        0.2592
    160 O          39.0030   26.6190   13.1650 O.2     1  ARG1       -0.2718
    161 CB         36.8450   29.2090   12.1770 C.3     1  ARG1        0.0321
    162 CG         37.0000   29.8870   13.5370 C.3     1  ARG1        0.0489
    163 CD         36.6330   31.3560   13.3600 C.3     1  ARG1        0.2205
    164 NE         36.7340   32.1750   14.5670 N.pl3   1  ARG1       -0.0865
    165 CZ         35.7000   32.7660   15.1670 C.cat   1  ARG1        0.5346
    166 NH1        34.4680   32.6270   14.6880 N.pl3   1  ARG1        0.1354
    167 NH2        35.8980   33.5010   16.2490 N.pl3   1  ARG1        0.1354
    168 N          39.4470   28.1640   11.5710 N.am    2  ASP2       -0.1976
    169 CA         40.9090   28.1160   11.6850 C.3     2  ASP2        0.1651
    170 C          41.4720   26.6850   11.6610 C.2     2  ASP2        0.2291
    171 O          42.2780   26.3310   12.5300 O.2     2  ASP2       -0.2864
    172 CB         41.3700   28.8560   12.9550 C.3     2  ASP2        0.0714
    173 CG         40.8090   30.2790   13.0590 C.2     2  ASP2        0.0525
    174 OD1        40.1840   30.7800   12.0890 O.co2   2  ASP2       -0.5491
    175 OD2        41.0110   30.9040   14.1250 O.co2   2  ASP2       -0.5491
    176 N          39.6370   25.5720   15.7440 N.3     1  GLU1       -0.1245
    177 CA         38.8620   26.2800   16.7560 C.3     1  GLU1        0.1565
    178 C          37.4140   25.8020   16.6830 C.2     1  GLU1        0.2260
    179 O          36.8320   25.7290   15.6030 O.2     1  GLU1       -0.2867
    180 CB         38.9140   27.8050   16.5710 C.3     1  GLU1        0.0329
    181 CG         37.7690   28.5060   17.3270 C.3     1  GLU1        0.0437
    182 CD         37.9620   29.9900   17.5700 C.2     1  GLU1        0.0504
    183 OE1        38.6400   30.6580   16.7660 O.co2   1  GLU1       -0.5492
    184 OE2        37.4030   30.4950   18.5710 O.co2   1  GLU1       -0.5492
    185 N          36.3230   31.5510   23.1240 N.3     1  GLU1       -0.1231
    186 CA         37.1140   31.8160   21.9320 C.3     1  GLU1        0.1697
    187 C          38.6030   31.5230   22.0950 C.2     1  GLU1        0.2592
    188 O          39.3650   32.3560   22.5990 O.2     1  GLU1       -0.2718
    189 CB         36.9020   33.2600   21.4730 C.3     1  GLU1        0.0343
    190 CG         37.2960   33.5120   20.0230 C.3     1  GLU1        0.0437
    191 CD         37.1500   34.9650   19.6450 C.2     1  GLU1        0.0504
    192 OE2        38.0840   35.7550   19.9260 O.co2   1  GLU1       -0.5492
    193 OE1        36.0970   35.3140   19.0710 O.co2   1  GLU1       -0.5492
    194 N          38.9980   30.3300   21.6610 N.am    2  ILE2       -0.1966
    195 CA         40.4020   29.9540   21.5390 C.3     2  ILE2        0.1727
    196 C          40.6960   29.6860   20.0570 C.2     2  ILE2        0.2616
    197 O          40.2300   28.6990   19.4850 O.2     2  ILE2       -0.2715
    198 CB         40.7910   28.7680   22.4710 C.3     2  ILE2        0.0290
    199 CG1        39.7310   27.6560   22.4490 C.3     2  ILE2        0.0022
    200 CG2        41.0120   29.2700   23.9060 C.3     2  ILE2        0.0023
    201 CD1        40.0900   26.4460   23.3160 C.3     2  ILE2        0.0001
    202 N          41.4680   30.5950   19.4580 N.am    3  ALA3       -0.1963
    203 CA         41.6030   30.7300   18.0050 C.3     3  ALA3        0.1728
    204 C          42.8970   30.1820   17.4270 C.2     3  ALA3        0.2616
    205 O          43.8400   29.8640   18.1630 O.2     3  ALA3       -0.2715
    206 CB         41.4700   32.1860   17.6190 C.3     3  ALA3        0.0334
    207 N          42.9230   30.1010   16.0920 N.am    4  ARG4       -0.1977
    208 CA         44.1210   29.7690   15.3140 C.3     4  ARG4        0.1597
    209 C          44.8820   28.5700   15.8660 C.2     4  ARG4        0.2287
    210 O          46.0800   28.6590   16.1760 O.2     4  ARG4       -0.2864
    211 CB         45.0320   30.9960   15.1710 C.3     4  ARG4        0.0334
    212 CG         44.3890   32.1440   14.4020 C.3     4  ARG4        0.0492
    213 CD         45.4200   32.8960   13.5750 C.3     4  ARG4        0.2205
    214 NE         45.8150   32.1370   12.4000 N.pl3   4  ARG4       -0.0865
    215 CZ         46.9070   32.3630   11.6780 C.cat   4  ARG4        0.5346
    216 NH2        47.7510   33.3350   11.9980 N.pl3   4  ARG4        0.1354
    217 NH1        47.1570   31.5930   10.6360 N.pl3   4  ARG4        0.1354
    218 N          45.5050   31.1250   20.0640 N.3     1  ASP1       -0.1241
    219 CA         45.4710   32.5550   20.3690 C.3     1  ASP1        0.1616
    220 C          44.1520   32.8970   21.0430 C.2     1  ASP1        0.2264
    221 O          43.1120   32.3260   20.7090 O.2     1  ASP1       -0.2867
    222 CB         45.6230   33.3930   19.0940 C.3     1  ASP1        0.0687
    223 CG         46.9480   33.1550   18.3840 C.2     1  ASP1        0.0522
    224 OD2        47.9760   32.9320   19.0620 O.co2   1  ASP1       -0.5491
    225 OD1        46.9580   33.2050   17.1410 O.co2   1  ASP1       -0.5491
    226 N          41.9230   36.2440   23.3390 N.3     1  ARG1       -0.1245
    227 CA         41.8170   37.6180   23.8190 C.3     1  ARG1        0.1563
    228 C          41.3180   37.6770   25.2620 C.2     1  ARG1        0.2260
    229 O          40.2700   37.1220   25.5850 O.2     1  ARG1       -0.2867
    230 CB         40.8830   38.4220   22.9070 C.3     1  ARG1        0.0307
    231 CG         41.3190   38.4840   21.4490 C.3     1  ARG1        0.0489
    232 CD         40.2220   39.0950   20.5760 C.3     1  ARG1        0.2205
    233 NE         40.6120   39.2020   19.1670 N.pl3   1  ARG1       -0.0865
    234 CZ         41.2910   40.2210   18.6420 C.cat   1  ARG1        0.5346
    235 NH2        41.6820   41.2400   19.4020 N.pl3   1  ARG1        0.1354
    236 NH1        41.5860   40.2200   17.3470 N.pl3   1  ARG1        0.1354
    237 N          37.7020   38.5530   26.2840 N.3     1  LYS1       -0.1245
    238 CA         36.6450   37.5400   26.1980 C.3     1  LYS1        0.1561
    239 C          36.7390   36.4890   27.3080 C.2     1  LYS1        0.2260
    240 O          35.9410   35.5460   27.3570 O.2     1  LYS1       -0.2867
    241 CB         36.6470   36.8730   24.8190 C.3     1  LYS1        0.0271
    242 CG         36.3560   37.8270   23.6750 C.3     1  LYS1        0.0035
    243 CD         36.1990   37.0910   22.3490 C.3     1  LYS1        0.0206
    244 CE         35.9960   38.0760   21.1940 C.3     1  LYS1        0.1093
    245 NZ         34.7790   38.9120   21.3800 N.3     1  LYS1       -0.1314
    246 N          48.4700   40.6600   16.7570 N.3     1  TYR1       -0.1227
    247 CA         47.5940   39.5490   17.1170 C.3     1  TYR1        0.1736
    248 C          47.8270   38.3710   16.1600 C.2     1  TYR1        0.2596
    249 O          48.5060   38.5190   15.1360 O.2     1  TYR1       -0.2718
    250 CB         46.1100   39.9820   17.1210 C.3     1  TYR1        0.0548
    251 CG         45.1950   38.9070   17.6730 C.ar    1  TYR1       -0.0200
    252 CD2        45.2130   38.5870   19.0300 C.ar    1  TYR1       -0.0009
    253 CD1        44.3460   38.1790   16.8380 C.ar    1  TYR1       -0.0009
    254 CE2        44.4050   37.5790   19.5490 C.ar    1  TYR1        0.0417
    255 CE1        43.5270   37.1700   17.3470 C.ar    1  TYR1        0.0417
    256 CZ         43.5650   36.8780   18.7030 C.ar    1  TYR1        0.1957
    257 OH         42.7720   35.8850   19.2280 O.3     1  TYR1       -0.2866
    258 N          47.2850   37.2060   16.5160 N.am    2  SER2       -0.1952
    259 CA         47.2120   36.0460   15.6190 C.3     2  SER2        0.1924
    260 C          48.5760   35.3560   15.4970 C.2     2  SER2        0.2314
    261 O          48.9060   34.7670   14.4630 O.2     2  SER2       -0.2863
    262 CB         46.6620   36.4530   14.2450 C.3     2  SER2        0.2116
    263 OG         45.6120   35.6040   13.8300 O.3     2  SER2       -0.2180
    264 N          50.1480   39.2230   12.5980 N.3     1  TYR1       -0.1241
    265 CA         49.8570   40.4390   11.8450 C.3     1  TYR1        0.1605
    266 C          50.0110   41.6480   12.7580 C.2     1  TYR1        0.2264
    267 O          49.8290   41.5360   13.9750 O.2     1  TYR1       -0.2867
    268 CB         48.4950   40.3770   11.1320 C.3     1  TYR1        0.0534
    269 CG         47.2480   40.6500   11.9550 C.ar    1  TYR1       -0.0201
    270 CD1        46.8010   41.9560   12.1710 C.ar    1  TYR1       -0.0009
    271 CD2        46.4720   39.5960   12.4520 C.ar    1  TYR1       -0.0009
    272 CE1        45.6330   42.2120   12.8980 C.ar    1  TYR1        0.0417
    273 CE2        45.3040   39.8400   13.1810 C.ar    1  TYR1        0.0417
    274 CZ         44.8930   41.1450   13.3990 C.ar    1  TYR1        0.1957
    275 OH         43.7390   41.3890   14.1160 O.3     1  TYR1       -0.2866
    276 N          46.0440   47.0310   13.7700 N.3     1  ASN1       -0.1225
    277 CA         44.6010   46.7350   13.8200 C.3     1  ASN1        0.1785
    278 C          43.8970   47.1530   12.5380 C.2     1  ASN1        0.2597
    279 O          44.1530   48.2420   12.0050 O.2     1  ASN1       -0.2718
    280 CB         43.9080   47.3760   15.0310 C.3     1  ASN1        0.1169
    281 CG         43.6920   46.3940   16.1880 C.2     1  ASN1        0.2627
    282 OD1        43.9170   46.7340   17.3520 O.2     1  ASN1       -0.2716
    283 ND2        43.2460   45.1840   15.8730 N.am    1  ASN1       -0.0877
    284 N          43.0200   46.2730   12.0560 N.am    2  ARG2       -0.1979
    285 CA         42.2370   46.4940   10.8410 C.3     2  ARG2        0.1597
    286 C          41.4510   47.7960   10.8730 C.2     2  ARG2        0.2287
    287 O          40.8190   48.1200   11.8800 O.2     2  ARG2       -0.2864
    288 CB         41.2630   45.3380   10.6240 C.3     2  ARG2        0.0334
    289 CG         41.9180   43.9960   10.3620 C.3     2  ARG2        0.0492
    290 CD         40.8690   42.8970   10.3510 C.3     2  ARG2        0.2205
    291 NE         39.8750   43.1120    9.3010 N.pl3   2  ARG2       -0.0865
    292 CZ         38.7430   42.4250    9.1780 C.cat   2  ARG2        0.5346
    293 NH2        38.4420   41.4620   10.0410 N.pl3   2  ARG2        0.1354
    294 NH1        37.9110   42.6960    8.1780 N.pl3   2  ARG2        0.1354
@<TRIPOS>UNITY_ATOM_ATTR
21 1
charge -1
42 1
charge -1
67 1
charge -1
174 1
charge -1
183 1
charge -1
192 1
charge -1
224 1
charge -1
@<TRIPOS>BOND
     1     1     2    1
     2     2     3    1
     3     2     5    1
     4     3     4    2
     5     3    15   am
     6     5     6    1
     7     6     8    2
     8     6     7    1
     9     7     9    1
    10     8    11   ar
    11     8    10   ar
    12     9    10    2
    13    10    12   ar
    14    11    13   ar
    15    12    14   ar
    16    13    14   ar
    17    15    16    1
    18    16    17    1
    19    16    19    1
    20    17    18    2
    21    19    20    1
    22    20    22   ar
    23    20    21   ar
    24    23    24    1
    25    24    25    1
    26    24    27    1
    27    25    26    2
    28    27    28    1
    29    28    30    1
    30    28    29    1
    31    31    32    1
    32    32    33    1
    33    32    35    1
    34    33    36   am
    35    33    34    2
    36    36    37    1
    37    37    38    1
    38    37    40    1
    39    38    39    2
    40    40    41    1
    41    41    43   ar
    42    41    42   ar
    43    44    45    1
    44    45    46    1
    45    45    48    1
    46    46    47    2
    47    48    50    1
    48    48    49    1
    49    51    52    1
    50    52    53    1
    51    52    55    1
    52    53    60   am
    53    53    54    2
    54    55    56    1
    55    56    57    1
    56    57    58    2
    57    57    59   am
    58    60    61    1
    59    61    64    1
    60    61    62    1
    61    62    63    2
    62    62    69   am
    63    64    65    1
    64    65    66    1
    65    66    68   ar
    66    66    67   ar
    67    69    70    1
    68    70    71    1
    69    70    73    1
    70    71    72    2
    71    71    83   am
    72    73    74    1
    73    74    75    2
    74    74    76    1
    75    75    77    1
    76    76    78    1
    77    76    79    1
    78    77    78    2
    79    78    80    1
    80    79    81    2
    81    80    82    2
    82    81    82    1
    83    83    84    1
    84    84    85    1
    85    84    87    1
    86    85    86    2
    87    87    88    1
    88    89    90    1
    89    90    91    1
    90    90    93    1
    91    91    92    2
    92    93    95    1
    93    93    94    1
    94    96    97    1
    95    97    98    1
    96    97   100    1
    97    98    99    2
    98   100   101    1
    99   101   103   ar
   100   101   102   ar
   101   102   104   ar
   102   103   105   ar
   103   104   106   ar
   104   105   106   ar
   105   107   108    1
   106   108   109    1
   107   109   110    2
   108   111   112    1
   109   112   113    1
   110   112   115    1
   111   113   114    2
   112   115   116    1
   113   116   117    1
   114   117   118    2
   115   117   119   am
   116   120   121    1
   117   121   124    1
   118   121   122    1
   119   122   123    2
   120   124   125    1
   121   125   127   ar
   122   125   126   ar
   123   126   128   ar
   124   127   129   ar
   125   128   130   ar
   126   129   130   ar
   127   130   131    1
   128   132   133    1
   129   133   134    1
   130   133   136    1
   131   134   140   am
   132   134   135    2
   133   136   137    1
   134   137   138    2
   135   137   139   am
   136   140   141    1
   137   141   142    1
   138   141   144    1
   139   142   143    2
   140   142   150   am
   141   144   145    1
   142   145   147   ar
   143   145   146   ar
   144   146   148   ar
   145   147   149   ar
   146   148   149   ar
   147   150   151    1
   148   151   152    1
   149   151   154    1
   150   152   153    2
   151   154   156    1
   152   154   155    1
   153   157   158    1
   154   158   161    1
   155   158   159    1
   156   159   168   am
   157   159   160    2
   158   161   162    1
   159   162   163    1
   160   163   164    1
   161   164   165    2
   162   165   166    1
   163   165   167    1
   164   168   169    1
   165   169   170    1
   166   169   172    1
   167   170   171    2
   168   172   173    1
   169   173   174   ar
   170   173   175   ar
   171   176   177    1
   172   177   180    1
   173   177   178    1
   174   178   179    2
   175   180   181    1
   176   181   182    1
   177   182   183   ar
   178   182   184   ar
   179   185   186    1
   180   186   189    1
   181   186   187    1
   182   187   194   am
   183   187   188    2
   184   189   190    1
   185   190   191    1
   186   191   193   ar
   187   191   192   ar
   188   194   195    1
   189   195   196    1
   190   195   198    1
   191   196   202   am
   192   196   197    2
   193   198   199    1
   194   198   200    1
   195   199   201    1
   196   202   203    1
   197   203   204    1
   198   203   206    1
   199   204   207   am
   200   204   205    2
   201   207   208    1
   202   208   211    1
   203   208   209    1
   204   209   210    2
   205   211   212    1
   206   212   213    1
   207   213   214    1
   208   214   215    2
   209   215   217    1
   210   215   216    1
   211   218   219    1
   212   219   222    1
   213   219   220    1
   214   220   221    2
   215   222   223    1
   216   223   225   ar
   217   223   224   ar
   218   226   227    1
   219   227   230    1
   220   227   228    1
   221   228   229    2
   222   230   231    1
   223   231   232    1
   224   232   233    1
   225   233   234    2
   226   234   236    1
   227   234   235    1
   228   237   238    1
   229   238   241    1
   230   238   239    1
   231   239   240    2
   232   241   242    1
   233   242   243    1
   234   243   244    1
   235   244   245    1
   236   246   247    1
   237   247   248    1
   238   247   250    1
   239   248   249    2
   240   248   258   am
   241   250   251    1
   242   251   253   ar
   243   251   252   ar
   244   252   254   ar
   245   253   255   ar
   246   254   256   ar
   247   255   256   ar
   248   256   257    1
   249   258   259    1
   250   259   262    1
   251   259   260    1
   252   260   261    2
   253   262   263    1
   254   264   265    1
   255   265   268    1
   256   265   266    1
   257   266   267    2
   258   268   269    1
   259   269   270   ar
   260   269   271   ar
   261   270   272   ar
   262   271   273   ar
   263   272   274   ar
   264   273   274   ar
   265   274   275    1
   266   276   277    1
   267   277   278    1
   268   277   280    1
   269   278   279    2
   270   278   284   am
   271   280   281    1
   272   281   283   am
   273   281   282    2
   274   284   285    1
   275   285   288    1
   276   285   286    1
   277   286   287    2
   278   288   289    1
   279   289   290    1
   280   290   291    1
   281   291   292    2
   282   292   294    1
   283   292   293    1
