@<TRIPOS>MOLECULE
./3gd9/protein.pdb
 215 213 0 0 0
SMALL
GASTEIGER

@<TRIPOS>ATOM
      1 N           7.1570   -8.1340   22.1470 N.3     1  ARG1       -0.1245
      2 CA          7.7900   -7.6230   23.3590 C.3     1  ARG1        0.1563
      3 C           8.0830   -8.7720   24.2990 C.2     1  ARG1        0.2260
      4 O           7.2960   -9.7310   24.4040 O.2     1  ARG1       -0.2867
      5 CB          6.8570   -6.6440   24.0600 C.3     1  ARG1        0.0307
      6 CG          6.5900   -5.3870   23.2520 C.3     1  ARG1        0.0489
      7 CD          5.5330   -4.5100   23.9030 C.3     1  ARG1        0.2205
      8 NE          5.4380   -3.2170   23.2030 N.pl3   1  ARG1       -0.0865
      9 CZ          4.8280   -2.1330   23.7060 C.cat   1  ARG1        0.5346
     10 NH2         4.2100   -2.1960   24.8730 N.pl3   1  ARG1        0.1354
     11 NH1         4.8090   -1.0040   23.0150 N.pl3   1  ARG1        0.1354
     12 N           8.0270   -8.9150   28.1040 N.3     1  TYR1       -0.1241
     13 CA          7.7100   -8.1760   29.3410 C.3     1  TYR1        0.1605
     14 C           8.2970   -8.9220   30.4980 C.2     1  TYR1        0.2264
     15 O           8.3530  -10.1500   30.4820 O.2     1  TYR1       -0.2867
     16 CB          6.2050   -8.1240   29.5730 C.3     1  TYR1        0.0534
     17 CG          5.4530   -7.1650   28.7070 C.ar    1  TYR1       -0.0201
     18 CD2         5.1360   -5.8880   29.1680 C.ar    1  TYR1       -0.0009
     19 CD1         4.9870   -7.5570   27.4570 C.ar    1  TYR1       -0.0009
     20 CE2         4.3990   -5.0070   28.3910 C.ar    1  TYR1        0.0417
     21 CE1         4.2320   -6.6840   26.6590 C.ar    1  TYR1        0.0417
     22 CZ          3.9570   -5.4000   27.1410 C.ar    1  TYR1        0.1957
     23 OH          3.2140   -4.5360   26.3920 O.3     1  TYR1       -0.2866
     24 N           0.9830   -9.4440   35.4040 N.3     1  MET1       -0.1245
     25 CA          0.3810   -8.3740   34.6340 C.3     1  MET1        0.1570
     26 C          -1.0250   -8.7470   34.2130 C.2     1  MET1        0.2261
     27 O          -1.3680   -9.9190   34.1950 O.2     1  MET1       -0.2867
     28 CB          1.2580   -8.0510   33.4310 C.3     1  MET1        0.0387
     29 CG          2.5420   -7.3510   33.8630 C.3     1  MET1        0.0595
     30 SD          3.5590   -6.8050   32.5060 S.3     1  MET1       -0.1393
     31 CE          2.5350   -5.4270   31.8400 C.3     1  MET1        0.0692
     32 N          -2.1550   -2.9130   24.5380 N.3     1  GLN1       -0.1231
     33 CA         -0.9390   -2.5960   25.2750 C.3     1  GLN1        0.1683
     34 C          -1.2750   -1.8250   26.5600 C.2     1  GLN1        0.2434
     35 O          -2.2800   -1.0970   26.6060 O.2     1  GLN1       -0.2733
     36 CB          0.0200   -1.7900   24.3920 C.3     1  GLN1        0.0380
     37 CG          1.3390   -2.5150   24.0350 C.3     1  GLN1        0.0905
     38 CD          1.1490   -3.9610   23.5490 C.2     1  GLN1        0.2608
     39 OE1         1.7500   -4.9090   24.0920 O.2     1  GLN1       -0.2717
     40 NE2         0.3560   -4.1270   22.5150 N.am    1  GLN1       -0.0878
     41 N          -0.4740   -2.0270   27.6290 N.am    2  PRO2       -0.2718
     42 CA         -0.7130   -1.3040   28.8670 C.3     2  PRO2        0.1535
     43 C          -0.5910    0.2020   28.6400 C.2     2  PRO2        0.2598
     44 O           0.1330    0.6530   27.7370 O.2     2  PRO2       -0.2715
     45 CB          0.4220   -1.7980   29.7940 C.3     2  PRO2        0.0310
     46 CG          0.8940   -3.0530   29.1800 C.3     2  PRO2        0.0237
     47 CD          0.6790   -2.9410   27.7360 C.3     2  PRO2        0.0939
     48 N          -1.3140    0.9750   29.4300 N.am    3  ALA3       -0.1964
     49 CA         -1.3170    2.4130   29.2730 C.3     3  ALA3        0.1728
     50 C          -1.2580    3.0050   30.6740 C.2     3  ALA3        0.2616
     51 O          -2.2600    3.4580   31.2070 O.2     3  ALA3       -0.2715
     52 CB         -2.6040    2.8750   28.5330 C.3     3  ALA3        0.0334
     53 N          -0.0840    2.9350   31.2910 N.am    4  VAL4       -0.1963
     54 CA          0.0100    3.2540   32.7100 C.3     4  VAL4        0.1727
     55 C           0.0190    4.7570   32.9970 C.2     4  VAL4        0.2616
     56 O           0.0120    5.1600   34.1670 O.2     4  VAL4       -0.2715
     57 CB          1.2060    2.5670   33.3890 C.3     4  VAL4        0.0290
     58 CG2         1.0340    1.0560   33.3560 C.3     4  VAL4        0.0023
     59 CG1         2.5050    2.9960   32.7160 C.3     4  VAL4        0.0023
     60 N          -0.0460    5.5780   31.9510 N.am    5  GLN5       -0.1977
     61 CA         -0.3610    7.0130   32.1480 C.3     5  GLN5        0.1601
     62 C          -1.7770    7.1870   32.6950 C.2     5  GLN5        0.2287
     63 O          -2.1320    8.2430   33.2430 O.2     5  GLN5       -0.2864
     64 CB         -0.1580    7.8310   30.8570 C.3     5  GLN5        0.0394
     65 CG         -1.2850    7.7180   29.8040 C.3     5  GLN5        0.0908
     66 CD         -1.1210    6.5280   28.8680 C.2     5  GLN5        0.2608
     67 OE1        -0.3510    5.5960   29.1390 O.2     5  GLN5       -0.2717
     68 NE2        -1.8400    6.5580   27.7530 N.am    5  GLN5       -0.0878
     69 N           7.0970   -3.2410   36.2910 N.3     1  PHE1       -0.1227
     70 CA          7.3440   -4.0380   35.0870 C.3     1  PHE1        0.1736
     71 C           8.0880   -3.2280   34.0250 C.2     1  PHE1        0.2595
     72 O           8.1290   -2.0060   34.0770 O.2     1  PHE1       -0.2718
     73 CB          6.0280   -4.5870   34.4970 C.3     1  PHE1        0.0547
     74 CG          5.1820   -3.5400   33.7860 C.ar    1  PHE1       -0.0202
     75 CD2         4.2540   -2.7760   34.5120 C.ar    1  PHE1       -0.0042
     76 CD1         5.3230   -3.3200   32.4020 C.ar    1  PHE1       -0.0042
     77 CE2         3.4790   -1.8000   33.8860 C.ar    1  PHE1       -0.0003
     78 CE1         4.5330   -2.3600   31.7400 C.ar    1  PHE1       -0.0003
     79 CZ          3.6040   -1.5930   32.4870 C.ar    1  PHE1       -0.0000
     80 N           8.6480   -3.9250   33.0520 N.am    2  ASN2       -0.1960
     81 CA          9.1230   -3.2680   31.8560 C.3     2  ASN2        0.1819
     82 C           9.0650   -4.2250   30.6910 C.2     2  ASN2        0.2621
     83 O           8.6430   -5.3890   30.8360 O.2     2  ASN2       -0.2715
     84 CB         10.5520   -2.7420   32.0560 C.3     2  ASN2        0.1195
     85 CG         10.7710   -1.3830   31.3880 C.2     2  ASN2        0.2630
     86 OD1        10.1180   -1.0600   30.4020 O.2     2  ASN2       -0.2716
     87 ND2        11.7040   -0.5620   31.9520 N.am    2  ASN2       -0.0877
     88 N           9.4470   -3.7460   29.5300 N.am    3  TRP3       -0.1960
     89 CA          9.5260   -4.6240   28.3660 C.3     3  TRP3        0.1768
     90 C          10.6440   -4.2240   27.4670 C.2     3  TRP3        0.2620
     91 O          11.1010   -3.0780   27.5070 O.2     3  TRP3       -0.2715
     92 CB          8.2000   -4.6530   27.5860 C.3     3  TRP3        0.0553
     93 CG          7.9330   -3.4000   26.8070 C.2     3  TRP3       -0.0136
     94 CD1         8.3380   -3.1280   25.5270 C.2     3  TRP3        0.0907
     95 CD2         7.1970   -2.2690   27.2490 C.3     3  TRP3        0.0819
     96 NE1         7.9220   -1.8830   25.1560 N.2     3  TRP3       -0.2482
     97 CE2         7.2050   -1.3260   26.1870 C.2     3  TRP3        0.0665
     98 CE3         6.5200   -1.9550   28.4330 C.2     3  TRP3       -0.0164
     99 CZ2         6.5560   -0.0840   26.2710 C.2     3  TRP3        0.0153
    100 CZ3         5.8550   -0.7140   28.5210 C.2     3  TRP3       -0.0038
    101 CH2         5.8880    0.2080   27.4360 C.2     3  TRP3        0.0009
    102 N          11.1130   -5.2020   26.6950 N.am    4  SER4       -0.1936
    103 CA         12.0080   -4.9920   25.5640 C.3     4  SER4        0.2055
    104 C          11.2420   -5.2980   24.2900 C.2     4  SER4        0.2642
    105 O          10.3040   -6.1040   24.2960 O.2     4  SER4       -0.2714
    106 CB         13.1990   -5.9620   25.6720 C.3     4  SER4        0.2130
    107 OG         13.8630   -6.0780   24.4000 O.3     4  SER4       -0.2179
    108 N          11.6370   -4.6770   23.1890 N.am    5  GLU5       -0.1976
    109 CA         10.9480   -4.8960   21.9030 C.3     5  GLU5        0.1600
    110 C          11.8910   -5.6670   21.0070 C.2     5  GLU5        0.2287
    111 O          13.0910   -5.4110   21.0110 O.2     5  GLU5       -0.2864
    112 CB         10.5640   -3.5350   21.2900 C.3     5  GLU5        0.0356
    113 CG          9.6600   -2.7160   22.2680 C.3     5  GLU5        0.0439
    114 CD          9.4020   -1.2840   21.8370 C.2     5  GLU5        0.0504
    115 OE1        10.2160   -0.7180   21.0720 O.co2   5  GLU5       -0.5492
    116 OE2         8.3690   -0.7030   22.3070 O.co2   5  GLU5       -0.5492
    117 N          13.9780    0.3570   25.3790 N.3     1  THR1       -0.1203
    118 CA         13.2080    1.5400   25.0310 C.3     1  THR1        0.1994
    119 C          12.7340    2.2970   26.2430 C.2     1  THR1        0.2618
    120 O          12.4380    1.7070   27.2830 O.2     1  THR1       -0.2717
    121 CB         11.9850    1.2020   24.1170 C.3     1  THR1        0.1784
    122 OG1        11.3090    2.4140   23.7520 O.3     1  THR1       -0.2211
    123 CG2        10.9970    0.2470   24.8660 C.3     1  THR1        0.0376
    124 N          12.7130    3.6190   26.1110 N.am    2  GLN2       -0.1965
    125 CA         12.1470    4.4870   27.1330 C.3     2  GLN2        0.1733
    126 C          11.0950    5.3940   26.5240 C.2     2  GLN2        0.2616
    127 O          10.7590    6.4520   27.0860 O.2     2  GLN2       -0.2715
    128 CB         13.2480    5.3160   27.8030 C.3     2  GLN2        0.0408
    129 CG         14.3410    4.4800   28.4150 C.3     2  GLN2        0.0908
    130 CD         15.3480    3.9920   27.3870 C.2     2  GLN2        0.2608
    131 OE1        15.6830    4.7030   26.4570 O.2     2  GLN2       -0.2717
    132 NE2        15.7970    2.7450   27.5350 N.am    2  GLN2       -0.0878
    133 N          10.5680    5.0070   25.3650 N.am    3  VAL3       -0.1963
    134 CA          9.6490    5.9150   24.6410 C.3     3  VAL3        0.1727
    135 C           8.3620    6.1540   25.4170 C.2     3  VAL3        0.2616
    136 O           7.7720    7.2440   25.3550 O.2     3  VAL3       -0.2715
    137 CB          9.3520    5.4160   23.2080 C.3     3  VAL3        0.0290
    138 CG2         8.3030    6.2830   22.5570 C.3     3  VAL3        0.0023
    139 CG1        10.6110    5.4750   22.3950 C.3     3  VAL3        0.0023
    140 N           7.9320    5.1600   26.1710 N.am    4  ASP4       -0.1959
    141 CA          6.7070    5.3040   26.9700 C.3     4  ASP4        0.1783
    142 C           6.9870    5.6780   28.4310 C.2     4  ASP4        0.2620
    143 O           6.2200    6.4180   29.0530 O.2     4  ASP4       -0.2715
    144 CB          5.8770    4.0140   26.9120 C.3     4  ASP4        0.0728
    145 CG          5.2620    3.7530   25.5250 C.2     4  ASP4        0.0526
    146 OD1         5.2250    4.6520   24.6700 O.co2   4  ASP4       -0.5491
    147 OD2         4.7410    2.6500   25.3300 O.co2   4  ASP4       -0.5491
    148 N           8.0750    5.1440   28.9860 N.am    5  MET5       -0.1963
    149 CA          8.3570    5.3200   30.4190 C.3     5  MET5        0.1736
    150 C           9.7910    4.9360   30.7220 C.2     5  MET5        0.2616
    151 O          10.4710    4.2940   29.9090 O.2     5  MET5       -0.2715
    152 CB          7.4310    4.4280   31.2600 C.3     5  MET5        0.0427
    153 CG          7.7810    2.9510   31.1250 C.3     5  MET5        0.0599
    154 SD          6.7340    1.9620   32.1750 S.3     5  MET5       -0.1393
    155 CE          5.2040    2.1760   31.3020 C.3     5  MET5        0.0692
    156 N          10.2410    5.3250   31.9040 N.am    6  PHE6       -0.1960
    157 CA         11.5330    4.9190   32.4080 C.3     6  PHE6        0.1771
    158 C          11.2610    4.1690   33.7020 C.2     6  PHE6        0.2620
    159 O          10.6760    4.7160   34.6180 O.2     6  PHE6       -0.2715
    160 CB         12.3970    6.1750   32.6710 C.3     6  PHE6        0.0574
    161 CG         13.7680    5.8670   33.2180 C.ar    6  PHE6       -0.0200
    162 CD2        13.9870    5.8190   34.5950 C.ar    6  PHE6       -0.0042
    163 CD1        14.8480    5.6440   32.3530 C.ar    6  PHE6       -0.0042
    164 CE2        15.2700    5.5510   35.1160 C.ar    6  PHE6       -0.0003
    165 CE1        16.1200    5.3570   32.8560 C.ar    6  PHE6       -0.0003
    166 CZ         16.3310    5.3330   34.2590 C.ar    6  PHE6       -0.0000
    167 N          11.6230    2.8880   33.7320 N.am    7  SER7       -0.1950
    168 CA         11.2760    2.0250   34.8500 C.3     7  SER7        0.1924
    169 C          12.2630    0.8850   34.9590 C.2     7  SER7        0.2314
    170 O          13.4020    0.9960   34.4630 O.2     7  SER7       -0.2863
    171 CB          9.8450    1.4950   34.7060 C.3     7  SER7        0.2116
    172 OG          9.3790    1.0180   35.9620 O.3     7  SER7       -0.2180
    173 N          17.0590   -2.6490   32.4800 N.3     1  TYR1       -0.1241
    174 CA         17.4500   -3.9050   31.8200 C.3     1  TYR1        0.1605
    175 C          18.4200   -3.6550   30.6580 C.2     1  TYR1        0.2264
    176 O          18.4960   -2.5230   30.0960 O.2     1  TYR1       -0.2867
    177 CB         16.2000   -4.6580   31.3190 C.3     1  TYR1        0.0534
    178 CG         15.4720   -3.9510   30.1980 C.ar    1  TYR1       -0.0201
    179 CD2        14.4420   -3.0270   30.4710 C.ar    1  TYR1       -0.0009
    180 CD1        15.7800   -4.2220   28.8570 C.ar    1  TYR1       -0.0009
    181 CE2        13.7560   -2.3870   29.4390 C.ar    1  TYR1        0.0417
    182 CE1        15.0950   -3.5880   27.8190 C.ar    1  TYR1        0.0417
    183 CZ         14.0940   -2.6510   28.1230 C.ar    1  TYR1        0.1957
    184 OH         13.4220   -1.9960   27.1090 O.3     1  TYR1       -0.2866
    185 N           8.0640    4.5350   38.3060 N.3     1  ARG1       -0.1245
    186 CA          8.4410    4.8460   36.9200 C.3     1  ARG1        0.1563
    187 C           8.3520    6.3550   36.7030 C.2     1  ARG1        0.2260
    188 O           7.7450    7.0850   37.5120 O.2     1  ARG1       -0.2867
    189 CB          7.5010    4.1370   35.9270 C.3     1  ARG1        0.0307
    190 CG          6.0320    4.6730   35.9150 C.3     1  ARG1        0.0489
    191 CD          5.1720    3.9180   34.8900 C.3     1  ARG1        0.2205
    192 NE          5.0360    2.4990   35.2410 N.pl3   1  ARG1       -0.0865
    193 CZ          4.1030    1.9920   36.0470 C.cat   1  ARG1        0.5346
    194 NH2         3.1220    2.7610   36.5410 N.pl3   1  ARG1        0.1354
    195 NH1         4.1020    0.6860   36.3050 N.pl3   1  ARG1        0.1354
    196 N           6.9770    8.7200   33.5220 N.3     1  LEU1       -0.1245
    197 CA          6.3700    8.7450   32.1930 C.3     1  LEU1        0.1561
    198 C           7.2470    9.5670   31.2500 C.2     1  LEU1        0.2260
    199 O           7.8500   10.5580   31.6580 O.2     1  LEU1       -0.2867
    200 CB          4.9800    9.3990   32.2670 C.3     1  LEU1        0.0270
    201 CG          3.9150    8.6720   33.0640 C.3     1  LEU1        0.0019
    202 CD2         2.6290    9.5000   33.0290 C.3     1  LEU1        0.0001
    203 CD1         3.6920    7.2820   32.4700 C.3     1  LEU1        0.0001
    204 N           3.4430   11.4510   27.3880 N.3     1  TYR1       -0.1241
    205 CA          2.4170   11.0960   28.3670 C.3     1  TYR1        0.1605
    206 C           2.2980   12.1070   29.4750 C.2     1  TYR1        0.2264
    207 O           1.2110   12.3040   30.0180 O.2     1  TYR1       -0.2867
    208 CB          2.6220    9.6660   28.8660 C.3     1  TYR1        0.0534
    209 CG          2.4090    8.6980   27.7270 C.ar    1  TYR1       -0.0201
    210 CD1         1.1820    8.6370   27.0770 C.ar    1  TYR1       -0.0009
    211 CD2         3.4690    7.9980   27.1800 C.ar    1  TYR1       -0.0009
    212 CE1         0.9940    7.8220   25.9530 C.ar    1  TYR1        0.0417
    213 CE2         3.2880    7.1760   26.0490 C.ar    1  TYR1        0.0417
    214 CZ          2.0440    7.1020   25.4580 C.ar    1  TYR1        0.1957
    215 OH          1.8480    6.2990   24.3600 O.3     1  TYR1       -0.2866
@<TRIPOS>UNITY_ATOM_ATTR
115 1
charge -1
146 1
charge -1
@<TRIPOS>BOND
     1     1     2    1
     2     2     5    1
     3     2     3    1
     4     3     4    2
     5     5     6    1
     6     6     7    1
     7     7     8    1
     8     8     9    2
     9     9    11    1
    10     9    10    1
    11    12    13    1
    12    13    16    1
    13    13    14    1
    14    14    15    2
    15    16    17    1
    16    17    19   ar
    17    17    18   ar
    18    18    20   ar
    19    19    21   ar
    20    20    22   ar
    21    21    22   ar
    22    22    23    1
    23    24    25    1
    24    25    28    1
    25    25    26    1
    26    26    27    2
    27    28    29    1
    28    29    30    1
    29    30    31    1
    30    32    33    1
    31    33    36    1
    32    33    34    1
    33    34    35    2
    34    34    41   am
    35    36    37    1
    36    37    38    1
    37    38    40   am
    38    38    39    2
    39    41    47    1
    40    41    42    1
    41    42    43    1
    42    42    45    1
    43    43    44    2
    44    43    48   am
    45    45    46    1
    46    46    47    1
    47    48    49    1
    48    49    52    1
    49    49    50    1
    50    50    51    2
    51    50    53   am
    52    53    54    1
    53    54    55    1
    54    54    57    1
    55    55    60   am
    56    55    56    2
    57    57    59    1
    58    57    58    1
    59    60    61    1
    60    61    64    1
    61    61    62    1
    62    62    63    2
    63    64    65    1
    64    65    66    1
    65    66    68   am
    66    66    67    2
    67    69    70    1
    68    70    71    1
    69    70    73    1
    70    71    80   am
    71    71    72    2
    72    73    74    1
    73    74    76   ar
    74    74    75   ar
    75    75    77   ar
    76    76    78   ar
    77    77    79   ar
    78    78    79   ar
    79    80    81    1
    80    81    82    1
    81    81    84    1
    82    82    88   am
    83    82    83    2
    84    84    85    1
    85    85    86    2
    86    85    87   am
    87    88    89    1
    88    89    90    1
    89    89    92    1
    90    90   102   am
    91    90    91    2
    92    92    93    1
    93    93    94    2
    94    93    95    1
    95    94    96    1
    96    95    97    1
    97    95    98    1
    98    96    97    2
    99    97    99    1
   100    98   100    2
   101    99   101    2
   102   100   101    1
   103   102   103    1
   104   103   104    1
   105   103   106    1
   106   104   108   am
   107   104   105    2
   108   106   107    1
   109   108   109    1
   110   109   110    1
   111   109   112    1
   112   110   111    2
   113   112   113    1
   114   113   114    1
   115   114   115   ar
   116   114   116   ar
   117   117   118    1
   118   118   121    1
   119   118   119    1
   120   119   124   am
   121   119   120    2
   122   121   122    1
   123   121   123    1
   124   124   125    1
   125   125   126    1
   126   125   128    1
   127   126   133   am
   128   126   127    2
   129   128   129    1
   130   129   130    1
   131   130   131    2
   132   130   132   am
   133   133   134    1
   134   134   137    1
   135   134   135    1
   136   135   136    2
   137   135   140   am
   138   137   139    1
   139   137   138    1
   140   140   141    1
   141   141   144    1
   142   141   142    1
   143   142   148   am
   144   142   143    2
   145   144   145    1
   146   145   146   ar
   147   145   147   ar
   148   148   149    1
   149   149   150    1
   150   149   152    1
   151   150   151    2
   152   150   156   am
   153   152   153    1
   154   153   154    1
   155   154   155    1
   156   156   157    1
   157   157   160    1
   158   157   158    1
   159   158   167   am
   160   158   159    2
   161   160   161    1
   162   161   163   ar
   163   161   162   ar
   164   162   164   ar
   165   163   165   ar
   166   164   166   ar
   167   165   166   ar
   168   167   168    1
   169   168   171    1
   170   168   169    1
   171   169   170    2
   172   171   172    1
   173   173   174    1
   174   174   175    1
   175   174   177    1
   176   175   176    2
   177   177   178    1
   178   178   180   ar
   179   178   179   ar
   180   179   181   ar
   181   180   182   ar
   182   181   183   ar
   183   182   183   ar
   184   183   184    1
   185   185   186    1
   186   186   189    1
   187   186   187    1
   188   187   188    2
   189   189   190    1
   190   190   191    1
   191   191   192    1
   192   192   193    2
   193   193   195    1
   194   193   194    1
   195   196   197    1
   196   197   198    1
   197   197   200    1
   198   198   199    2
   199   200   201    1
   200   201   203    1
   201   201   202    1
   202   204   205    1
   203   205   208    1
   204   205   206    1
   205   206   207    2
   206   208   209    1
   207   209   210   ar
   208   209   211   ar
   209   210   212   ar
   210   211   213   ar
   211   212   214   ar
   212   213   214   ar
   213   214   215    1
