@<TRIPOS>MOLECULE
./1tyw/protein.pdb
 223 214 0 0 0
SMALL
GASTEIGER

@<TRIPOS>ATOM
      1 N          68.5060   55.0290  101.2490 N.3     1  SER1       -0.1217
      2 CA         69.2760   56.2720  101.3320 C.3     1  SER1        0.1889
      3 C          68.4920   57.3370  102.0900 C.2     1  SER1        0.2288
      4 O          69.0700   58.1790  102.7570 O.2     1  SER1       -0.2866
      5 CB         69.6650   56.7710   99.9300 C.3     1  SER1        0.2089
      6 OG         70.5700   55.8640   99.3060 O.3     1  SER1       -0.2183
      7 N          69.3350   60.3230  104.8500 N.3     1  LYS1       -0.1245
      8 CA         68.9940   61.7010  104.5170 C.3     1  LYS1        0.1561
      9 C          68.0450   62.3600  105.5340 C.2     1  LYS1        0.2260
     10 O          68.2330   63.5280  105.8840 O.2     1  LYS1       -0.2867
     11 CB         68.3980   61.7400  103.0910 C.3     1  LYS1        0.0271
     12 CG         67.9640   63.1100  102.5860 C.3     1  LYS1        0.0035
     13 CD         69.1300   64.1080  102.4660 C.3     1  LYS1        0.0206
     14 CE         70.2150   63.6360  101.5020 C.3     1  LYS1        0.1093
     15 NZ         71.1350   64.7260  101.0920 N.3     1  LYS1       -0.1314
     16 N          69.1870   58.1310   90.9960 N.3     1  SER1       -0.1217
     17 CA         69.7410   59.0670   90.0010 C.3     1  SER1        0.1889
     18 CB         69.0410   59.1440   88.6360 C.2     1  SER1        0.2288
     19 OG         68.5260   58.1420   88.1200 O.2     1  SER1       -0.2866
     20 C          71.2410   58.8300   89.8340 C.3     1  SER1        0.2089
     21 O          71.9060   59.0240   91.0790 O.3     1  SER1       -0.2183
     22 N          65.7650   61.7140   93.2590 N.3     1  GLY1       -0.1210
     23 CA         65.7260   61.1750   94.6110 C.3     1  GLY1        0.1956
     24 C          67.1480   61.0190   95.1470 C.2     1  GLY1        0.2612
     25 O          67.3740   60.9820   96.3560 O.2     1  GLY1       -0.2717
     26 N          68.1050   60.8370   94.2460 N.am    2  GLU2       -0.1965
     27 CA         69.4950   60.7740   94.6580 C.3     2  GLU2        0.1731
     28 C          70.2220   61.9150   93.9360 C.2     2  GLU2        0.2617
     29 O          70.0330   63.0670   94.3020 O.2     2  GLU2       -0.2715
     30 CB         70.1460   59.4140   94.3640 C.3     2  GLU2        0.0370
     31 CG         71.5400   59.2550   94.9970 C.3     2  GLU2        0.0440
     32 CD         72.1560   57.8970   94.7060 C.2     2  GLU2        0.0504
     33 OE2        71.5230   56.8690   95.0300 O.co2   2  GLU2       -0.5492
     34 OE1        73.2600   57.8560   94.1340 O.co2   2  GLU2       -0.5492
     35 N          70.9350   61.6180   92.8520 N.am    3  SER3       -0.1950
     36 CA         71.6920   62.6360   92.1280 C.3     3  SER3        0.1924
     37 CB         71.2530   62.8510   90.6780 C.2     3  SER3        0.2314
     38 OG         70.6660   61.9640   90.0420 O.2     3  SER3       -0.2863
     39 C          73.2010   62.3210   92.1930 C.3     3  SER3        0.2116
     40 O          73.6440   62.2320   93.5440 O.3     3  SER3       -0.2180
     41 N          75.2250   60.6850   87.7100 N.3     1  LYS1       -0.1245
     42 CA         76.1080   59.8660   88.5260 C.3     1  LYS1        0.1561
     43 C          76.9750   58.8400   87.7860 C.2     1  LYS1        0.2260
     44 O          76.4950   58.1210   86.9040 O.2     1  LYS1       -0.2867
     45 CB         75.2610   59.1190   89.5720 C.3     1  LYS1        0.0271
     46 CG         75.9940   58.0620   90.3890 C.3     1  LYS1        0.0035
     47 CD         75.0510   57.3460   91.3530 C.3     1  LYS1        0.0206
     48 CE         75.8380   56.4490   92.3140 C.3     1  LYS1        0.1093
     49 NZ         75.0020   55.6960   93.2960 N.3     1  LYS1       -0.1314
     50 N          80.4470   54.2470   91.7950 N.3     1  GLN1       -0.1245
     51 CA         81.6810   54.0240   92.5380 C.3     1  GLN1        0.1566
     52 C          81.7180   52.5970   93.0740 C.2     1  GLN1        0.2260
     53 O          80.6730   51.9910   93.3370 O.2     1  GLN1       -0.2867
     54 CB         81.7940   54.9750   93.7470 C.3     1  GLN1        0.0367
     55 CG         81.7380   56.4740   93.4510 C.3     1  GLN1        0.0905
     56 CD         80.3450   57.0490   93.6330 C.2     1  GLN1        0.2608
     57 OE1        79.6920   56.8310   94.6600 O.2     1  GLN1       -0.2717
     58 NE2        79.8780   57.7760   92.6410 N.am    1  GLN1       -0.0878
     59 N          69.9820   64.4370   96.8280 N.3     1  TRP1       -0.1227
     60 CA         71.3770   64.2510   97.1650 C.3     1  TRP1        0.1734
     61 C          72.2550   65.2120   96.3570 C.2     1  TRP1        0.2595
     62 O          72.1650   66.4220   96.5630 O.2     1  TRP1       -0.2718
     63 CB         71.8350   62.7940   97.0570 C.3     1  TRP1        0.0527
     64 CG         71.2790   61.9550   98.1590 C.2     1  TRP1       -0.0139
     65 CD1        69.9910   61.5020   98.2730 C.2     1  TRP1        0.0907
     66 CD2        71.9870   61.4370   99.2920 C.3     1  TRP1        0.0819
     67 NE1        69.8590   60.7260   99.4030 N.2     1  TRP1       -0.2482
     68 CE2        71.0670   60.6670  100.0470 C.2     1  TRP1        0.0665
     69 CE3        73.3160   61.5410   99.7400 C.2     1  TRP1       -0.0164
     70 CZ2        71.4300   59.9950  101.2370 C.2     1  TRP1        0.0153
     71 CZ3        73.6840   60.8680  100.9290 C.2     1  TRP1       -0.0038
     72 CH2        72.7350   60.1070  101.6590 C.2     1  TRP1        0.0009
     73 N          72.9980   64.7230   95.3690 N.am    2  ASP2       -0.1976
     74 CA         73.9210   65.5940   94.6600 C.3     2  ASP2        0.1651
     75 C          73.5280   66.0370   93.2550 C.2     2  ASP2        0.2291
     76 O          72.7010   65.4060   92.6000 O.2     2  ASP2       -0.2864
     77 CB         75.2930   64.9220   94.6080 C.3     2  ASP2        0.0714
     78 CG         75.7880   64.4840   95.9750 C.2     2  ASP2        0.0525
     79 OD2        75.2430   64.9120   97.0210 O.co2   2  ASP2       -0.5491
     80 OD1        76.7410   63.6920   95.9970 O.co2   2  ASP2       -0.5491
     81 N          75.8700   66.7010   90.5580 N.3     1  PHE1       -0.1227
     82 CA         76.7040   65.8190   89.7420 C.3     1  PHE1        0.1736
     83 C          77.5980   65.0480   90.6990 C.2     1  PHE1        0.2595
     84 O          78.2920   65.6460   91.5210 O.2     1  PHE1       -0.2718
     85 CB         77.5910   66.6040   88.7700 C.3     1  PHE1        0.0547
     86 CG         76.8240   67.3120   87.6880 C.ar    1  PHE1       -0.0202
     87 CD2        76.2550   68.5620   87.9220 C.ar    1  PHE1       -0.0042
     88 CD1        76.6510   66.7130   86.4390 C.ar    1  PHE1       -0.0042
     89 CE2        75.5100   69.2180   86.9180 C.ar    1  PHE1       -0.0003
     90 CE1        75.9170   67.3500   85.4360 C.ar    1  PHE1       -0.0003
     91 CZ         75.3420   68.6090   85.6720 C.ar    1  PHE1       -0.0000
     92 N          77.5000   63.7230   90.6490 N.am    2  ASP2       -0.1962
     93 CA         78.3130   62.8500   91.4700 C.3     2  ASP2        0.1783
     94 C          79.2480   62.1560   90.4850 C.2     2  ASP2        0.2620
     95 O          78.9090   61.1180   89.9180 O.2     2  ASP2       -0.2715
     96 CB         77.4290   61.8250   92.2040 C.3     2  ASP2        0.0728
     97 CG         78.2440   60.8400   93.0600 C.2     2  ASP2        0.0526
     98 OD1        79.4500   61.0810   93.3070 O.co2   2  ASP2       -0.5491
     99 OD2        77.6840   59.8090   93.4640 O.co2   2  ASP2       -0.5491
    100 N          80.4370   62.7220   90.3010 N.am    3  LEU3       -0.1963
    101 CA         81.4020   62.1900   89.3470 C.3     3  LEU3        0.1728
    102 C          82.5980   61.4800   89.9740 C.2     3  LEU3        0.2617
    103 O          83.6580   61.3900   89.3680 O.2     3  LEU3       -0.2715
    104 CB         81.8500   63.3030   88.3950 C.3     3  LEU3        0.0311
    105 CG         80.7340   64.1070   87.7020 C.3     3  LEU3        0.0022
    106 CD1        81.3350   65.1550   86.7840 C.3     3  LEU3        0.0001
    107 CD2        79.7900   63.1940   86.9220 C.3     3  LEU3        0.0001
    108 N          82.4080   60.9630   91.1870 N.am    4  GLY4       -0.1940
    109 CA         83.4660   60.2420   91.8750 C.3     4  GLY4        0.2014
    110 C          83.5150   58.7930   91.4060 C.2     4  GLY4        0.2639
    111 O          82.5460   58.2840   90.8330 O.2     4  GLY4       -0.2714
    112 N          84.6300   58.1210   91.6700 N.am    5  ALA5       -0.1963
    113 CA         84.7990   56.7320   91.2550 C.3     5  ALA5        0.1728
    114 C          85.0490   55.8140   92.4540 C.2     5  ALA5        0.2616
    115 O          84.7560   54.6230   92.3940 O.2     5  ALA5       -0.2715
    116 CB         85.9430   56.6180   90.2550 C.3     5  ALA5        0.0334
    117 N          85.6150   56.3630   93.5260 N.am    6  ASP6       -0.1959
    118 CA         85.8860   55.5810   94.7330 C.3     6  ASP6        0.1783
    119 C          84.9830   56.0280   95.8560 C.2     6  ASP6        0.2620
    120 O          84.6410   57.2060   95.9530 O.2     6  ASP6       -0.2715
    121 CB         87.3440   55.7300   95.1870 C.3     6  ASP6        0.0728
    122 CG         88.3110   54.9960   94.2940 C.2     6  ASP6        0.0526
    123 OD1        88.0180   53.8600   93.8900 O.co2   6  ASP6       -0.5491
    124 OD2        89.3710   55.5520   93.9990 O.co2   6  ASP6       -0.5491
    125 N          84.5830   55.0840   96.6950 N.am    7  THR7       -0.1951
    126 CA         83.7340   55.3910   97.8450 C.3     7  THR7        0.1897
    127 C          84.5200   55.1220   99.1360 C.2     7  THR7        0.2313
    128 O          85.7390   54.8790   99.1000 O.2     7  THR7       -0.2863
    129 CB         82.4340   54.5390   97.8540 C.3     7  THR7        0.1794
    130 OG1        82.5920   53.4060   96.9840 O.3     7  THR7       -0.2208
    131 CG2        81.2220   55.3850   97.4230 C.3     7  THR7        0.0378
    132 N          90.6440   57.5440   95.5990 N.3     1  HIS1       -0.1241
    133 CA         90.2920   58.8790   95.1050 C.3     1  HIS1        0.1618
    134 C          91.3180   59.4930   94.1360 C.2     1  HIS1        0.2264
    135 O          91.2310   60.6870   93.8000 O.2     1  HIS1       -0.2867
    136 CB         90.0140   59.8410   96.2740 C.3     1  HIS1        0.0704
    137 CG         88.9490   59.3630   97.2140 C.2     1  HIS1        0.0649
    138 ND1        87.6550   59.1120   96.8140 N.2     1  HIS1       -0.2310
    139 CD2        88.9820   59.1070   98.5420 C.3     1  HIS1        0.1683
    140 CE1        86.9360   58.7250   97.8520 C.2     1  HIS1        0.1939
    141 NE2        87.7210   58.7150   98.9120 N.2     1  HIS1       -0.2440
    142 N          71.8790   67.9880   99.0100 N.3     1  GLY1       -0.1210
    143 CA         73.1470   67.3650   99.3270 C.3     1  GLY1        0.1956
    144 C          74.2640   68.2640   98.8210 C.2     1  GLY1        0.2611
    145 O          74.2600   69.4620   99.0920 O.2     1  GLY1       -0.2717
    146 N          75.1850   67.7110   98.0460 N.am    2  VAL2       -0.1979
    147 CA         76.3110   68.4790   97.4950 C.3     2  VAL2        0.1595
    148 C          76.0270   68.8890   96.0390 C.2     2  VAL2        0.2287
    149 O          75.5590   68.0870   95.2430 O.2     2  VAL2       -0.2864
    150 CB         77.6460   67.6460   97.5630 C.3     2  VAL2        0.0276
    151 CG1        78.8000   68.3880   96.8840 C.3     2  VAL2        0.0022
    152 CG2        78.0230   67.3720   99.0150 C.3     2  VAL2        0.0022
    153 N          78.2040   69.7950   93.5040 N.3     1  PHE1       -0.1227
    154 CA         79.1480   69.1870   92.5800 C.3     1  PHE1        0.1736
    155 C          80.1950   68.3630   93.3500 C.2     1  PHE1        0.2596
    156 O          80.9470   68.9010   94.1700 O.2     1  PHE1       -0.2718
    157 CB         79.8040   70.3160   91.7590 C.3     1  PHE1        0.0547
    158 CG         80.7610   69.8330   90.7080 C.ar    1  PHE1       -0.0202
    159 CD1        80.2910   69.2420   89.5310 C.ar    1  PHE1       -0.0042
    160 CD2        82.1380   69.9410   90.9030 C.ar    1  PHE1       -0.0042
    161 CE1        81.1840   68.7570   88.5630 C.ar    1  PHE1       -0.0003
    162 CE2        83.0400   69.4570   89.9380 C.ar    1  PHE1       -0.0003
    163 CZ         82.5580   68.8650   88.7720 C.ar    1  PHE1       -0.0000
    164 N          80.2180   67.0530   93.1090 N.am    2  GLY2       -0.1942
    165 CA         81.1490   66.1830   93.8020 C.3     2  GLY2        0.2014
    166 C          81.9640   65.3410   92.8500 C.2     2  GLY2        0.2639
    167 O          81.4740   64.9360   91.7940 O.2     2  GLY2       -0.2714
    168 N          83.2210   65.0950   93.1950 N.am    3  MET3       -0.1963
    169 CA         84.0820   64.2850   92.3540 C.3     3  MET3        0.1736
    170 C          85.3860   63.9090   93.0620 C.2     3  MET3        0.2616
    171 O          85.6620   64.3740   94.1700 O.2     3  MET3       -0.2715
    172 CB         84.3880   65.0400   91.0440 C.3     3  MET3        0.0427
    173 CG         85.2100   66.3060   91.2240 C.3     3  MET3        0.0599
    174 SD         85.6870   67.1270   89.6720 S.3     3  MET3       -0.1393
    175 CE         86.5950   65.9090   88.8260 C.3     3  MET3        0.0692
    176 N          86.1200   62.9790   92.4690 N.am    4  ASP4       -0.1973
    177 CA         87.4310   62.5960   92.9820 C.3     4  ASP4        0.1651
    178 C          88.2770   62.3420   91.7400 C.2     4  ASP4        0.2291
    179 O          87.7980   62.5630   90.6150 O.2     4  ASP4       -0.2864
    180 CB         87.3860   61.4000   93.9740 C.3     4  ASP4        0.0714
    181 CG         87.0100   60.0460   93.3320 C.2     4  ASP4        0.0525
    182 OD1        86.7390   59.9560   92.1200 O.co2   4  ASP4       -0.5491
    183 OD2        87.0040   59.0360   94.0780 O.co2   4  ASP4       -0.5491
    184 N          76.1550   71.5160  100.7430 N.3     1  SER1       -0.1217
    185 CA         77.4870   72.0050  100.3320 C.3     1  SER1        0.1889
    186 CB         77.6100   72.2510   98.8090 C.2     1  SER1        0.2288
    187 OG         77.0390   71.5140   98.0120 O.2     1  SER1       -0.2866
    188 C          78.5260   70.9710  100.7940 C.3     1  SER1        0.2089
    189 O          79.8820   71.3680  100.6460 O.3     1  SER1       -0.2183
    190 N          80.5090   72.2640   96.6740 N.3     1  ALA1       -0.1231
    191 CA         81.4100   71.3580   95.9920 C.3     1  ALA1        0.1694
    192 C          82.2070   70.5720   97.0140 C.2     1  ALA1        0.2592
    193 O          82.6450   71.1090   98.0350 O.2     1  ALA1       -0.2718
    194 CB         82.3550   72.1360   95.0700 C.3     1  ALA1        0.0304
    195 N          82.3600   69.2840   96.7450 N.am    2  TYR2       -0.1976
    196 CA         83.1020   68.3980   97.6170 C.3     2  TYR2        0.1639
    197 C          84.0680   67.7020   96.6610 C.2     2  TYR2        0.2290
    198 O          83.6910   66.7860   95.9190 O.2     2  TYR2       -0.2864
    199 CB         82.1420   67.4180   98.2810 C.3     2  TYR2        0.0560
    200 CG         82.7880   66.6410   99.3900 C.ar    2  TYR2       -0.0198
    201 CD2        83.1100   67.2560  100.5980 C.ar    2  TYR2       -0.0009
    202 CD1        83.0810   65.2850   99.2330 C.ar    2  TYR2       -0.0009
    203 CE2        83.7080   66.5380  101.6220 C.ar    2  TYR2        0.0417
    204 CE1        83.6740   64.5610  100.2470 C.ar    2  TYR2        0.0417
    205 CZ         83.9840   65.1900  101.4370 C.ar    2  TYR2        0.1957
    206 OH         84.5530   64.4560  102.4470 O.3     2  TYR2       -0.2866
    207 N          87.4070   65.5480   96.1690 N.3     1  LEU1       -0.1245
    208 CA         88.4650   64.6730   96.6750 C.3     1  LEU1        0.1561
    209 C          89.4420   64.4420   95.5220 C.2     1  LEU1        0.2260
    210 O          89.6960   63.3070   95.1000 O.2     1  LEU1       -0.2867
    211 CB         87.8610   63.3480   97.1650 C.3     1  LEU1        0.0270
    212 CG         86.7860   63.5250   98.2360 C.3     1  LEU1        0.0019
    213 CD1        86.2900   62.1680   98.6260 C.3     1  LEU1        0.0001
    214 CD2        87.3490   64.2970   99.4400 C.3     1  LEU1        0.0001
    215 N          77.2020   70.5330  106.0370 N.3     1  GLN1       -0.1245
    216 CA         78.6240   70.3040  105.9150 C.3     1  GLN1        0.1566
    217 C          79.4200   71.3170  106.6900 C.2     1  GLN1        0.2260
    218 O          78.8990   72.3160  107.1700 O.2     1  GLN1       -0.2867
    219 CB         79.0810   70.3250  104.4560 C.3     1  GLN1        0.0367
    220 CG         78.8980   69.0030  103.7160 C.3     1  GLN1        0.0905
    221 CD         77.4910   68.8190  103.1740 C.2     1  GLN1        0.2608
    222 OE1        76.6840   69.7620  103.1370 O.2     1  GLN1       -0.2717
    223 NE2        77.1960   67.6090  102.7210 N.am    1  GLN1       -0.0878
@<TRIPOS>UNITY_ATOM_ATTR
33 1
charge -1
79 1
charge -1
98 1
charge -1
123 1
charge -1
182 1
charge -1
@<TRIPOS>BOND
     1     1     2    1
     2     2     5    1
     3     2     3    1
     4     3     4    2
     5     5     6    1
     6     7     8    1
     7     8    11    1
     8     8     9    1
     9     9    10    2
    10    11    12    1
    11    12    13    1
    12    13    14    1
    13    14    15    1
    14    16    17    1
    15    17    18    1
    16    17    20    1
    17    18    19    2
    18    20    21    1
    19    22    23    1
    20    23    24    1
    21    24    26   am
    22    24    25    2
    23    26    27    1
    24    27    28    1
    25    27    30    1
    26    28    35   am
    27    28    29    2
    28    30    31    1
    29    31    32    1
    30    32    34   ar
    31    32    33   ar
    32    35    36    1
    33    36    37    1
    34    36    39    1
    35    37    38    2
    36    39    40    1
    37    41    42    1
    38    42    43    1
    39    42    45    1
    40    43    44    2
    41    45    46    1
    42    46    47    1
    43    47    48    1
    44    48    49    1
    45    50    51    1
    46    51    52    1
    47    51    54    1
    48    52    53    2
    49    54    55    1
    50    55    56    1
    51    56    58   am
    52    56    57    2
    53    59    60    1
    54    60    61    1
    55    60    63    1
    56    61    73   am
    57    61    62    2
    58    63    64    1
    59    64    65    2
    60    64    66    1
    61    65    67    1
    62    66    69    1
    63    66    68    1
    64    67    68    2
    65    68    70    1
    66    69    71    2
    67    70    72    2
    68    71    72    1
    69    73    74    1
    70    74    75    1
    71    74    77    1
    72    75    76    2
    73    77    78    1
    74    78    80   ar
    75    78    79   ar
    76    81    82    1
    77    82    85    1
    78    82    83    1
    79    83    92   am
    80    83    84    2
    81    85    86    1
    82    86    88   ar
    83    86    87   ar
    84    87    89   ar
    85    88    90   ar
    86    89    91   ar
    87    90    91   ar
    88    92    93    1
    89    93    94    1
    90    93    96    1
    91    94    95    2
    92    94   100   am
    93    96    97    1
    94    97    98   ar
    95    97    99   ar
    96   100   101    1
    97   101   104    1
    98   101   102    1
    99   102   103    2
   100   102   108   am
   101   104   105    1
   102   105   106    1
   103   105   107    1
   104   108   109    1
   105   109   110    1
   106   110   111    2
   107   110   112   am
   108   112   113    1
   109   113   116    1
   110   113   114    1
   111   114   115    2
   112   114   117   am
   113   117   118    1
   114   118   121    1
   115   118   119    1
   116   119   120    2
   117   119   125   am
   118   121   122    1
   119   122   123   ar
   120   122   124   ar
   121   125   126    1
   122   126   129    1
   123   126   127    1
   124   127   128    2
   125   129   130    1
   126   129   131    1
   127   132   133    1
   128   133   134    1
   129   133   136    1
   130   134   135    2
   131   136   137    1
   132   137   138    2
   133   137   139    1
   134   138   140    1
   135   139   141    1
   136   140   141    2
   137   142   143    1
   138   143   144    1
   139   144   146   am
   140   144   145    2
   141   146   147    1
   142   147   148    1
   143   147   150    1
   144   148   149    2
   145   150   151    1
   146   150   152    1
   147   153   154    1
   148   154   157    1
   149   154   155    1
   150   155   164   am
   151   155   156    2
   152   157   158    1
   153   158   159   ar
   154   158   160   ar
   155   159   161   ar
   156   160   162   ar
   157   161   163   ar
   158   162   163   ar
   159   164   165    1
   160   165   166    1
   161   166   167    2
   162   166   168   am
   163   168   169    1
   164   169   172    1
   165   169   170    1
   166   170   176   am
   167   170   171    2
   168   172   173    1
   169   173   174    1
   170   174   175    1
   171   176   177    1
   172   177   178    1
   173   177   180    1
   174   178   179    2
   175   180   181    1
   176   181   182   ar
   177   181   183   ar
   178   184   185    1
   179   185   186    1
   180   185   188    1
   181   186   187    2
   182   188   189    1
   183   190   191    1
   184   191   194    1
   185   191   192    1
   186   192   195   am
   187   192   193    2
   188   195   196    1
   189   196   197    1
   190   196   199    1
   191   197   198    2
   192   199   200    1
   193   200   202   ar
   194   200   201   ar
   195   201   203   ar
   196   202   204   ar
   197   203   205   ar
   198   204   205   ar
   199   205   206    1
   200   207   208    1
   201   208   209    1
   202   208   211    1
   203   209   210    2
   204   211   212    1
   205   212   213    1
   206   212   214    1
   207   215   216    1
   208   216   219    1
   209   216   217    1
   210   217   218    2
   211   219   220    1
   212   220   221    1
   213   221   223   am
   214   221   222    2
