@<TRIPOS>MOLECULE
./1tyw/protein.pdb
 118 109 0 0 0
SMALL
GASTEIGER

@<TRIPOS>ATOM
      1 N          66.7230   51.3480   80.6550 N.3     1  LEU1       -0.1245
      2 CA         67.9640   50.6470   80.9190 C.3     1  LEU1        0.1561
      3 C          68.6330   50.0600   79.6820 C.2     1  LEU1        0.2260
      4 O          68.0480   49.2270   78.9820 O.2     1  LEU1       -0.2867
      5 CB         67.6970   49.5110   81.9280 C.3     1  LEU1        0.0270
      6 CG         68.7660   48.4400   82.1890 C.3     1  LEU1        0.0019
      7 CD1        70.0100   49.0620   82.8430 C.3     1  LEU1        0.0001
      8 CD2        68.1670   47.3350   83.0700 C.3     1  LEU1        0.0001
      9 N          71.4280   47.7410   78.8020 N.3     1  ARG1       -0.1245
     10 CA         72.2590   46.7240   79.4400 C.3     1  ARG1        0.1563
     11 C          73.2130   46.0900   78.4370 C.2     1  ARG1        0.2260
     12 O          72.7690   45.4510   77.4780 O.2     1  ARG1       -0.2867
     13 CB         71.3600   45.6560   80.0920 C.3     1  ARG1        0.0307
     14 CG         72.0960   44.5620   80.8600 C.3     1  ARG1        0.0489
     15 CD         71.1300   43.7680   81.7360 C.3     1  ARG1        0.2205
     16 NE         71.0860   44.3130   83.0910 N.pl3   1  ARG1       -0.0865
     17 CZ         70.0390   44.2880   83.9200 C.cat   1  ARG1        0.5346
     18 NH1        68.8780   43.7360   83.5760 N.pl3   1  ARG1        0.1354
     19 NH2        70.1500   44.8680   85.1050 N.pl3   1  ARG1        0.1354
     20 N          61.3370   53.6300   90.8500 N.3     1  LYS1       -0.1231
     21 CA         62.2670   53.2460   91.9150 C.3     1  LYS1        0.1693
     22 C          63.7380   53.2220   91.4630 C.2     1  LYS1        0.2592
     23 O          64.6380   53.6150   92.2250 O.2     1  LYS1       -0.2718
     24 CB         61.8670   51.8740   92.5000 C.3     1  LYS1        0.0285
     25 CG         62.6950   51.4120   93.6820 C.3     1  LYS1        0.0035
     26 CD         62.3900   52.2570   94.9030 C.3     1  LYS1        0.0206
     27 CE         63.2740   51.8950   96.1020 C.3     1  LYS1        0.1093
     28 NZ         62.8740   50.6650   96.8650 N.3     1  LYS1       -0.1314
     29 N          63.9800   52.7530   90.2390 N.am    2  ASP2       -0.1962
     30 CA         65.3460   52.6700   89.7080 C.3     2  ASP2        0.1783
     31 C          65.7680   53.9310   88.9510 C.2     2  ASP2        0.2620
     32 O          64.9700   54.8430   88.7690 O.2     2  ASP2       -0.2715
     33 CB         65.4850   51.4410   88.7960 C.3     2  ASP2        0.0728
     34 CG         65.3670   50.1110   89.5640 C.2     2  ASP2        0.0526
     35 OD2        65.8080   50.0080   90.7320 O.co2   2  ASP2       -0.5491
     36 OD1        64.8200   49.1600   88.9780 O.co2   2  ASP2       -0.5491
     37 N          67.0250   53.9750   88.5160 N.am    3  GLY3       -0.1954
     38 CA         67.5340   55.1200   87.7720 C.3     3  GLY3        0.1869
     39 C          66.6780   55.3790   86.5400 C.2     3  GLY3        0.2309
     40 O          66.1730   54.4310   85.9230 O.2     3  GLY3       -0.2863
     41 N          69.8710   54.5810   82.5500 N.3     1  THR1       -0.1218
     42 CA         71.0290   53.8190   83.0010 C.3     1  THR1        0.1862
     43 C          71.7870   53.1150   81.8750 C.2     1  THR1        0.2287
     44 O          71.1830   52.4410   81.0240 O.2     1  THR1       -0.2866
     45 CB         70.5940   52.7040   84.0120 C.3     1  THR1        0.1770
     46 OG1        69.8970   53.2920   85.1100 O.3     1  THR1       -0.2211
     47 CG2        71.8110   51.9280   84.5490 C.3     1  THR1        0.0375
     48 N          74.3990   50.3950   81.7930 N.3     1  GLU1       -0.1245
     49 CA         75.0840   49.4080   82.6190 C.3     1  GLU1        0.1565
     50 C          75.8790   48.4550   81.7340 C.2     1  GLU1        0.2260
     51 O          75.3110   47.8010   80.8550 O.2     1  GLU1       -0.2867
     52 CB         74.0560   48.6300   83.4480 C.3     1  GLU1        0.0329
     53 CG         74.6650   47.6350   84.4210 C.3     1  GLU1        0.0437
     54 CD         73.6830   46.5440   84.8160 C.2     1  GLU1        0.0504
     55 OE2        72.8860   46.7510   85.7600 O.co2   1  GLU1       -0.5492
     56 OE1        73.7020   45.4760   84.1780 O.co2   1  GLU1       -0.5492
     57 N          66.0990   57.3370   92.7200 N.3     1  VAL1       -0.1231
     58 CA         67.5490   57.4180   92.7030 C.3     1  VAL1        0.1692
     59 C          68.0510   58.4050   91.6340 C.2     1  VAL1        0.2592
     60 O          67.4110   59.4450   91.4220 O.2     1  VAL1       -0.2718
     61 CB         68.2140   56.0080   92.6680 C.3     1  VAL1        0.0266
     62 CG2        67.8020   55.2390   93.9200 C.3     1  VAL1        0.0020
     63 CG1        67.8250   55.2280   91.4320 C.3     1  VAL1        0.0020
     64 N          69.1870   58.1310   90.9960 N.am    2  SER2       -0.1952
     65 CA         69.7410   59.0670   90.0010 C.3     2  SER2        0.1924
     66 CB         69.0410   59.1440   88.6360 C.2     2  SER2        0.2314
     67 OG         68.5260   58.1420   88.1200 O.2     2  SER2       -0.2863
     68 C          71.2410   58.8300   89.8340 C.3     2  SER2        0.2116
     69 O          71.9060   59.0240   91.0790 O.3     2  SER2       -0.2180
     70 N          72.7260   57.6530   84.9250 N.3     1  GLN1       -0.1245
     71 CA         73.8520   57.0170   85.5940 C.3     1  GLN1        0.1566
     72 C          74.5840   56.0410   84.6860 C.2     1  GLN1        0.2260
     73 O          73.9820   55.4240   83.7970 O.2     1  GLN1       -0.2867
     74 CB         73.3760   56.3190   86.8730 C.3     1  GLN1        0.0367
     75 CG         72.3270   55.2260   86.6460 C.3     1  GLN1        0.0905
     76 CD         71.7790   54.6440   87.9480 C.2     1  GLN1        0.2608
     77 OE1        72.1770   55.0550   89.0410 O.2     1  GLN1       -0.2717
     78 NE2        70.8740   53.6770   87.8350 N.am    1  GLN1       -0.0878
     79 N          77.6660   52.8060   84.5220 N.3     1  LEU1       -0.1245
     80 CA         78.4120   51.7550   85.2070 C.3     1  LEU1        0.1561
     81 C          79.3620   51.1050   84.1990 C.2     1  LEU1        0.2260
     82 O          78.9250   50.6290   83.1500 O.2     1  LEU1       -0.2867
     83 CB         77.4790   50.6750   85.7860 C.3     1  LEU1        0.0270
     84 CG         76.5190   51.0290   86.9280 C.3     1  LEU1        0.0019
     85 CD1        75.2080   51.5480   86.3410 C.3     1  LEU1        0.0001
     86 CD2        76.2770   49.7910   87.7980 C.3     1  LEU1        0.0001
     87 N          68.1050   60.8370   94.2460 N.3     1  GLU1       -0.1245
     88 CA         69.4950   60.7740   94.6580 C.3     1  GLU1        0.1565
     89 C          70.2220   61.9150   93.9360 C.2     1  GLU1        0.2260
     90 O          70.0330   63.0670   94.3020 O.2     1  GLU1       -0.2867
     91 CB         70.1460   59.4140   94.3640 C.3     1  GLU1        0.0329
     92 CG         71.5400   59.2550   94.9970 C.3     1  GLU1        0.0437
     93 CD         72.1560   57.8970   94.7060 C.2     1  GLU1        0.0504
     94 OE2        71.5230   56.8690   95.0300 O.co2   1  GLU1       -0.5492
     95 OE1        73.2600   57.8560   94.1340 O.co2   1  GLU1       -0.5492
     96 N          75.2250   60.6850   87.7100 N.3     1  LYS1       -0.1245
     97 CA         76.1080   59.8660   88.5260 C.3     1  LYS1        0.1561
     98 C          76.9750   58.8400   87.7860 C.2     1  LYS1        0.2260
     99 O          76.4950   58.1210   86.9040 O.2     1  LYS1       -0.2867
    100 CB         75.2610   59.1190   89.5720 C.3     1  LYS1        0.0271
    101 CG         75.9940   58.0620   90.3890 C.3     1  LYS1        0.0035
    102 CD         75.0510   57.3460   91.3530 C.3     1  LYS1        0.0206
    103 CE         75.8380   56.4490   92.3140 C.3     1  LYS1        0.1093
    104 NZ         75.0020   55.6960   93.2960 N.3     1  LYS1       -0.1314
    105 N          79.0110   55.6590   88.7390 N.3     1  TRP1       -0.1241
    106 CA         79.0740   54.7680   89.8970 C.3     1  TRP1        0.1602
    107 C          80.4420   54.5880   90.5120 C.2     1  TRP1        0.2264
    108 O          81.4610   54.7480   89.8460 O.2     1  TRP1       -0.2867
    109 CB         78.4850   53.4020   89.5600 C.3     1  TRP1        0.0513
    110 CG         77.0260   53.3650   89.7710 C.2     1  TRP1       -0.0140
    111 CD1        76.0780   54.0830   89.0970 C.2     1  TRP1        0.0907
    112 CD2        76.3310   52.6190   90.7730 C.3     1  TRP1        0.0819
    113 NE1        74.8360   53.8350   89.6310 N.2     1  TRP1       -0.2482
    114 CE2        74.9590   52.9370   90.6550 C.2     1  TRP1        0.0665
    115 CE3        76.7340   51.7120   91.7670 C.2     1  TRP1       -0.0164
    116 CZ2        73.9880   52.3860   91.4900 C.2     1  TRP1        0.0153
    117 CZ3        75.7690   51.1670   92.6000 C.2     1  TRP1       -0.0038
    118 CH2        74.4070   51.5070   92.4530 C.2     1  TRP1        0.0009
@<TRIPOS>UNITY_ATOM_ATTR
35 1
charge -1
55 1
charge -1
94 1
charge -1
@<TRIPOS>BOND
     1     1     2    1
     2     2     3    1
     3     2     5    1
     4     3     4    2
     5     5     6    1
     6     6     7    1
     7     6     8    1
     8     9    10    1
     9    10    11    1
    10    10    13    1
    11    11    12    2
    12    13    14    1
    13    14    15    1
    14    15    16    1
    15    16    17    2
    16    17    18    1
    17    17    19    1
    18    20    21    1
    19    21    22    1
    20    21    24    1
    21    22    29   am
    22    22    23    2
    23    24    25    1
    24    25    26    1
    25    26    27    1
    26    27    28    1
    27    29    30    1
    28    30    33    1
    29    30    31    1
    30    31    37   am
    31    31    32    2
    32    33    34    1
    33    34    36   ar
    34    34    35   ar
    35    37    38    1
    36    38    39    1
    37    39    40    2
    38    41    42    1
    39    42    43    1
    40    42    45    1
    41    43    44    2
    42    45    47    1
    43    45    46    1
    44    48    49    1
    45    49    50    1
    46    49    52    1
    47    50    51    2
    48    52    53    1
    49    53    54    1
    50    54    56   ar
    51    54    55   ar
    52    57    58    1
    53    58    59    1
    54    58    61    1
    55    59    64   am
    56    59    60    2
    57    61    63    1
    58    61    62    1
    59    64    65    1
    60    65    66    1
    61    65    68    1
    62    66    67    2
    63    68    69    1
    64    70    71    1
    65    71    72    1
    66    71    74    1
    67    72    73    2
    68    74    75    1
    69    75    76    1
    70    76    78   am
    71    76    77    2
    72    79    80    1
    73    80    81    1
    74    80    83    1
    75    81    82    2
    76    83    84    1
    77    84    85    1
    78    84    86    1
    79    87    88    1
    80    88    89    1
    81    88    91    1
    82    89    90    2
    83    91    92    1
    84    92    93    1
    85    93    95   ar
    86    93    94   ar
    87    96    97    1
    88    97    98    1
    89    97   100    1
    90    98    99    2
    91   100   101    1
    92   101   102    1
    93   102   103    1
    94   103   104    1
    95   105   106    1
    96   106   109    1
    97   106   107    1
    98   107   108    2
    99   109   110    1
   100   110   111    2
   101   110   112    1
   102   111   113    1
   103   112   114    1
   104   112   115    1
   105   113   114    2
   106   114   116    1
   107   115   117    2
   108   116   118    2
   109   117   118    1
