@<TRIPOS>MOLECULE
./1ogo/protein.pdb
 334 325 0 0 0
SMALL
GASTEIGER

@<TRIPOS>ATOM
      1 N          10.8700    4.7370   -1.5310 N.3     1  ASP1       -0.1241
      2 CA         11.5310    5.9690   -1.9370 C.3     1  ASP1        0.1616
      3 C          12.6920    6.1330   -0.9790 C.2     1  ASP1        0.2264
      4 O          12.4920    6.3150    0.2220 O.2     1  ASP1       -0.2867
      5 CB         10.5430    7.1450   -1.8600 C.3     1  ASP1        0.0687
      6 CG         11.1070    8.4580   -2.4010 C.2     1  ASP1        0.0522
      7 OD1        12.3190    8.5420   -2.7160 O.co2   1  ASP1       -0.5491
      8 OD2        10.3860    9.4820   -2.5070 O.co2   1  ASP1       -0.5491
      9 N          20.5600    1.5570    2.3940 N.3     1  TYR1       -0.1227
     10 CA         19.6240    2.5110    2.9670 C.3     1  TYR1        0.1736
     11 C          18.9630    1.9160    4.2210 C.2     1  TYR1        0.2595
     12 O          18.4860    0.7790    4.1870 O.2     1  TYR1       -0.2718
     13 CB         18.5880    2.8600    1.9160 C.3     1  TYR1        0.0548
     14 CG         17.5120    3.8070    2.3830 C.ar    1  TYR1       -0.0200
     15 CD2        17.8340    4.9880    3.0520 C.ar    1  TYR1       -0.0009
     16 CD1        16.1710    3.5220    2.1590 C.ar    1  TYR1       -0.0009
     17 CE2        16.8380    5.8680    3.4660 C.ar    1  TYR1        0.0417
     18 CE1        15.1770    4.4040    2.5790 C.ar    1  TYR1        0.0417
     19 CZ         15.5250    5.5630    3.2430 C.ar    1  TYR1        0.1957
     20 OH         14.5450    6.4560    3.6640 O.3     1  TYR1       -0.2866
     21 N          18.9860    2.6650    5.3240 N.am    2  GLN2       -0.1979
     22 CA         18.3600    2.2700    6.6000 C.3     2  GLN2        0.1601
     23 C          18.9750    1.0350    7.2650 C.2     2  GLN2        0.2287
     24 O          18.3360    0.4110    8.1390 O.2     2  GLN2       -0.2864
     25 CB         16.8550    2.0150    6.4110 C.3     2  GLN2        0.0394
     26 CG         16.0880    3.1390    5.7720 C.3     2  GLN2        0.0908
     27 CD         14.6340    2.7780    5.4340 C.2     2  GLN2        0.2608
     28 OE1        14.3330    1.6790    4.9150 O.2     2  GLN2       -0.2717
     29 NE2        13.7380    3.7140    5.6820 N.am    2  GLN2       -0.0878
     30 N          13.6870   -0.2690    7.9670 N.3     1  LYS1       -0.1245
     31 CA         13.7570    0.8320    8.8990 C.3     1  LYS1        0.1561
     32 C          13.4160    0.3680   10.2970 C.2     1  LYS1        0.2260
     33 O          12.3950   -0.2830   10.4910 O.2     1  LYS1       -0.2867
     34 CB         12.7610    1.9220    8.5140 C.3     1  LYS1        0.0271
     35 CG         12.7880    3.1130    9.4260 C.3     1  LYS1        0.0035
     36 CD         11.8390    4.2160    8.9600 C.3     1  LYS1        0.0206
     37 CE         11.7120    5.2810   10.0400 C.3     1  LYS1        0.1093
     38 NZ         10.8520    6.4370    9.6120 N.3     1  LYS1       -0.1314
     39 N          13.5650    2.6490   14.0350 N.3     1  ASP1       -0.1227
     40 CA         13.9810    3.8300   14.7660 C.3     1  ASP1        0.1748
     41 C          14.9810    3.4990   15.8640 C.2     1  ASP1        0.2596
     42 O          15.8630    4.2990   16.1590 O.2     1  ASP1       -0.2718
     43 CB         12.7640    4.5660   15.3500 C.3     1  ASP1        0.0701
     44 CG         11.9770    5.3100   14.2920 C.2     1  ASP1        0.0523
     45 OD1        12.6200    6.0210   13.4850 O.co2   1  ASP1       -0.5491
     46 OD2        10.7290    5.2480   14.1690 O.co2   1  ASP1       -0.5491
     47 N          14.8670    2.3150   16.4590 N.am    2  SER2       -0.1952
     48 CA         15.7660    1.9500   17.5410 C.3     2  SER2        0.1924
     49 CB         17.0730    1.2950   17.0760 C.2     2  SER2        0.2314
     50 OG         18.0850    1.5140   17.7110 O.2     2  SER2       -0.2863
     51 C          15.0780    1.0340   18.5570 C.3     2  SER2        0.2116
     52 O          14.6050   -0.1240   17.9250 O.3     2  SER2       -0.2180
     53 N          23.2910    4.2450   13.1540 N.3     1  ARG1       -0.1245
     54 CA         23.8720    5.5870   13.2530 C.3     1  ARG1        0.1563
     55 C          25.3650    5.5430   12.9850 C.2     1  ARG1        0.2260
     56 O          26.0300    4.5430   13.2750 O.2     1  ARG1       -0.2867
     57 CB         23.6860    6.1650   14.6590 C.3     1  ARG1        0.0307
     58 CG         22.3120    6.7470   14.9230 C.3     1  ARG1        0.0489
     59 CD         21.1510    5.7510   14.8140 C.3     1  ARG1        0.2205
     60 NE         19.8710    6.3810   15.1960 N.pl3   1  ARG1       -0.0865
     61 CZ         18.6960    5.7610   15.3010 C.cat   1  ARG1        0.5346
     62 NH1        18.5580    4.4660   15.0630 N.pl3   1  ARG1        0.1354
     63 NH2        17.6210    6.4650   15.6620 N.pl3   1  ARG1        0.1354
     64 N          21.5290    6.2700    7.4340 N.3     1  PHE1       -0.1227
     65 CA         20.3810    6.6140    8.2780 C.3     1  PHE1        0.1736
     66 C          20.6400    7.8990    9.0990 C.2     1  PHE1        0.2595
     67 O          21.5170    8.7170    8.7730 O.2     1  PHE1       -0.2718
     68 CB         20.0510    5.3780    9.1490 C.3     1  PHE1        0.0547
     69 CG         18.6550    5.3810    9.7400 C.ar    1  PHE1       -0.0202
     70 CD1        17.5530    5.3540    8.9350 C.ar    1  PHE1       -0.0042
     71 CD2        18.4750    5.4260   11.1220 C.ar    1  PHE1       -0.0042
     72 CE1        16.2640    5.3720    9.4800 C.ar    1  PHE1       -0.0003
     73 CE2        17.1910    5.4440   11.6610 C.ar    1  PHE1       -0.0003
     74 CZ         16.1070    5.4090   10.8450 C.ar    1  PHE1       -0.0000
     75 N          19.8820    8.0980   10.1730 N.am    2  ASN2       -0.1960
     76 CA         20.1490    9.1810   11.0920 C.3     2  ASN2        0.1819
     77 C          21.6240    9.1270   11.4880 C.2     2  ASN2        0.2622
     78 O          22.1750    8.0410   11.7110 O.2     2  ASN2       -0.2715
     79 CB         19.3040    9.0670   12.3680 C.3     2  ASN2        0.1195
     80 CG         17.7920    8.9570   12.1140 C.2     2  ASN2        0.2630
     81 OD1        17.0380    8.6760   13.0530 O.2     2  ASN2       -0.2716
     82 ND2        17.3430    9.1710   10.8860 N.am    2  ASN2       -0.0877
     83 N          22.2920   10.2680   11.5670 N.am    3  THR3       -0.1937
     84 CA         23.7530   10.2310   11.7550 C.3     3  THR3        0.2028
     85 C          24.2220   10.0290   13.1920 C.2     3  THR3        0.2642
     86 O          25.3040    9.5050   13.4010 O.2     3  THR3       -0.2714
     87 CB         24.4480   11.4820   11.2090 C.3     3  THR3        0.1808
     88 OG1        23.8900   12.6660   11.8040 O.3     3  THR3       -0.2208
     89 CG2        24.1780   11.6320    9.7300 C.3     3  THR3        0.0379
     90 N          23.4550   10.4870   14.1750 N.am    4  MET4       -0.1962
     91 CA         23.9080   10.3840   15.5620 C.3     4  MET4        0.1736
     92 C          22.7480   10.3050   16.5480 C.2     4  MET4        0.2616
     93 O          21.7920   11.0710   16.4470 O.2     4  MET4       -0.2715
     94 CB         24.8250   11.5560   15.9180 C.3     4  MET4        0.0427
     95 CG         25.2950   11.5790   17.3800 C.3     4  MET4        0.0599
     96 SD         24.0680   12.4720   18.4710 S.3     4  MET4       -0.1393
     97 CE         24.9470   13.7290   18.9740 C.3     4  MET4        0.0692
     98 N          22.8620    9.3910   17.5140 N.am    5  ASP5       -0.1959
     99 CA         21.9280    9.3000   18.6430 C.3     5  ASP5        0.1783
    100 C          22.6470    8.6620   19.8240 C.2     5  ASP5        0.2620
    101 O          23.3020    7.6280   19.6630 O.2     5  ASP5       -0.2715
    102 CB         20.7170    8.4460   18.2890 C.3     5  ASP5        0.0728
    103 CG         19.6780    9.2010   17.4810 C.2     5  ASP5        0.0526
    104 OD2        18.9910   10.0970   18.0500 O.co2   5  ASP5       -0.5491
    105 OD1        19.4660    8.9570   16.2750 O.co2   5  ASP5       -0.5491
    106 N          22.5540    9.2810   20.9970 N.am    6  PHE6       -0.1960
    107 CA         23.0670    8.6840   22.2260 C.3     6  PHE6        0.1771
    108 C          21.8780    8.4350   23.1720 C.2     6  PHE6        0.2619
    109 O          21.2560    9.3870   23.6550 O.2     6  PHE6       -0.2715
    110 CB         24.0940    9.5970   22.8650 C.3     6  PHE6        0.0574
    111 CG         25.2340    9.9930   21.9470 C.ar    6  PHE6       -0.0200
    112 CD2        25.8020   11.2470   22.0500 C.ar    6  PHE6       -0.0042
    113 CD1        25.7480    9.1020   20.9990 C.ar    6  PHE6       -0.0042
    114 CE2        26.8660   11.6250   21.2320 C.ar    6  PHE6       -0.0003
    115 CE1        26.8160    9.4840   20.1760 C.ar    6  PHE6       -0.0003
    116 CZ         27.3600   10.7290   20.2930 C.ar    6  PHE6       -0.0000
    117 N          21.5760    7.1560   23.4040 N.am    7  ASN7       -0.1972
    118 CA         20.4030    6.7090   24.1620 C.3     7  ASN7        0.1688
    119 C          20.7610    6.0970   25.5160 C.2     7  ASN7        0.2292
    120 O          21.9170    5.7120   25.7570 O.2     7  ASN7       -0.2864
    121 CB         19.6440    5.6490   23.3710 C.3     7  ASN7        0.1181
    122 CG         19.3540    6.0730   21.9510 C.2     7  ASN7        0.2629
    123 OD1        18.7740    7.1300   21.7140 O.2     7  ASN7       -0.2716
    124 ND2        19.7470    5.2450   20.9990 N.am    7  ASN7       -0.0877
    125 N          17.2480    9.8190    2.1360 N.3     1  PHE1       -0.1227
    126 CA         16.3410   10.3100    3.1750 C.3     1  PHE1        0.1736
    127 C          16.8700    9.9240    4.5550 C.2     1  PHE1        0.2595
    128 O          17.6610    8.9820    4.7100 O.2     1  PHE1       -0.2718
    129 CB         14.9520    9.6750    3.0550 C.3     1  PHE1        0.0547
    130 CG         14.0230   10.2880    2.0480 C.ar    1  PHE1       -0.0202
    131 CD1        13.0280    9.4850    1.4890 C.ar    1  PHE1       -0.0042
    132 CD2        14.0410   11.6430    1.7160 C.ar    1  PHE1       -0.0042
    133 CE1        12.1000    9.9980    0.5980 C.ar    1  PHE1       -0.0003
    134 CE2        13.1030   12.1640    0.8230 C.ar    1  PHE1       -0.0003
    135 CZ         12.1290   11.3420    0.2670 C.ar    1  PHE1       -0.0000
    136 N          16.4250   10.6580    5.5660 N.am    2  GLN2       -0.1965
    137 CA         16.6640   10.3210    6.9710 C.3     2  GLN2        0.1733
    138 C          18.0970   10.5720    7.4470 C.2     2  GLN2        0.2617
    139 O          18.4660   10.1840    8.5480 O.2     2  GLN2       -0.2715
    140 CB         16.1760    8.8870    7.2730 C.3     2  GLN2        0.0408
    141 CG         14.6880    8.7110    6.9460 C.3     2  GLN2        0.0908
    142 CD         14.1440    7.3470    7.2930 C.2     2  GLN2        0.2608
    143 OE1        14.1980    6.4100    6.4840 O.2     2  GLN2       -0.2717
    144 NE2        13.6240    7.2260    8.4880 N.am    2  GLN2       -0.0878
    145 N          18.8780   11.3020    6.6570 N.am    3  THR3       -0.1937
    146 CA         20.2590   11.6000    6.9960 C.3     3  THR3        0.2028
    147 C          20.3550   12.9000    7.7880 C.2     3  THR3        0.2642
    148 O          20.9950   13.8790    7.3770 O.2     3  THR3       -0.2714
    149 CB         21.1150   11.6480    5.7120 C.3     3  THR3        0.1808
    150 OG1        20.4950   12.4980    4.7380 O.3     3  THR3       -0.2208
    151 CG2        21.1370   10.2700    5.0490 C.3     3  THR3        0.0379
    152 N          19.7160   12.9210    8.9540 N.am    4  ASP4       -0.1959
    153 CA         19.6640   14.1710    9.6940 C.3     4  ASP4        0.1783
    154 C          20.9930   14.5070   10.2980 C.2     4  ASP4        0.2620
    155 O          21.8580   13.6580   10.4030 O.2     4  ASP4       -0.2715
    156 CB         18.5850   14.1930   10.7730 C.3     4  ASP4        0.0728
    157 CG         18.4760   12.9350   11.5240 C.2     4  ASP4        0.0526
    158 OD1        19.5050   12.2190   11.6380 O.co2   4  ASP4       -0.5491
    159 OD2        17.3700   12.6060   12.0410 O.co2   4  ASP4       -0.5491
    160 N          21.1550   15.7620   10.6860 N.am    5  GLY5       -0.1954
    161 CA         22.2780   16.1610   11.5050 C.3     5  GLY5        0.1869
    162 C          22.2560   15.4910   12.8680 C.2     5  GLY5        0.2309
    163 O          21.3020   14.7890   13.2240 O.2     5  GLY5       -0.2863
    164 N          22.0010   14.9670   16.9480 N.3     1  GLU1       -0.1245
    165 CA         21.1490   15.4950   18.0050 C.3     1  GLU1        0.1565
    166 C          21.8670   16.6590   18.6880 C.2     1  GLU1        0.2260
    167 O          23.0970   16.7200   18.7580 O.2     1  GLU1       -0.2867
    168 CB         20.7830   14.4090   19.0110 C.3     1  GLU1        0.0329
    169 CG         20.0370   13.2160   18.4220 C.3     1  GLU1        0.0437
    170 CD         18.6350   13.5380   17.9220 C.2     1  GLU1        0.0504
    171 OE2        18.0750   14.5800   18.2970 O.co2   1  GLU1       -0.5492
    172 OE1        18.0750   12.7420   17.1510 O.co2   1  GLU1       -0.5492
    173 N          21.8040   17.8990   22.0350 N.3     1  TYR1       -0.1241
    174 CA         21.4350   17.5860   23.4100 C.3     1  TYR1        0.1605
    175 C          21.5530   18.8180   24.3120 C.2     1  TYR1        0.2264
    176 O          22.1710   19.8140   23.9470 O.2     1  TYR1       -0.2867
    177 CB         22.2820   16.3870   23.9090 C.3     1  TYR1        0.0534
    178 CG         21.9230   15.0770   23.2460 C.ar    1  TYR1       -0.0201
    179 CD1        22.8880   14.3220   22.5660 C.ar    1  TYR1       -0.0009
    180 CD2        20.6170   14.5970   23.2450 C.ar    1  TYR1       -0.0009
    181 CE1        22.5450   13.1390   21.9440 C.ar    1  TYR1        0.0417
    182 CE2        20.2810   13.4230   22.6330 C.ar    1  TYR1        0.0417
    183 CZ         21.2560   12.6950   21.9630 C.ar    1  TYR1        0.1957
    184 OH         20.8880   11.5230   21.3600 O.3     1  TYR1       -0.2866
    185 N          19.6600   15.2050    3.8390 N.3     1  ASN1       -0.1225
    186 CA         18.3710   14.9810    3.2060 C.3     1  ASN1        0.1785
    187 C          17.3450   14.6190    4.2730 C.2     1  ASN1        0.2597
    188 O          16.4160   13.8130    4.0720 O.2     1  ASN1       -0.2718
    189 CB         18.4270   13.9500    2.0550 C.3     1  ASN1        0.1169
    190 CG         17.2170   14.0250    1.1250 C.2     1  ASN1        0.2627
    191 OD1        16.4320   14.9840    1.1660 O.2     1  ASN1       -0.2716
    192 ND2        17.0490   12.9940    0.2810 N.am    1  ASN1       -0.0877
    193 N          17.5450   15.2350    5.4300 N.am    2  ASP2       -0.1962
    194 CA         16.5540   15.2970    6.4930 C.3     2  ASP2        0.1783
    195 C          16.8680   16.4330    7.4630 C.2     2  ASP2        0.2620
    196 O          17.7160   17.2790    7.1830 O.2     2  ASP2       -0.2715
    197 CB         16.4230   13.9620    7.2260 C.3     2  ASP2        0.0728
    198 CG         14.9780   13.5960    7.4710 C.2     2  ASP2        0.0526
    199 OD2        14.3300   14.3310    8.2550 O.co2   2  ASP2       -0.5491
    200 OD1        14.4110   12.6250    6.9080 O.co2   2  ASP2       -0.5491
    201 N          16.1600   16.4640    8.5880 N.am    3  ASP3       -0.1973
    202 CA         16.3090   17.5290    9.5940 C.3     3  ASP3        0.1651
    203 C          17.7710   17.8780    9.8160 C.2     3  ASP3        0.2291
    204 O          18.5640   17.0050   10.1560 O.2     3  ASP3       -0.2864
    205 CB         15.7530   17.0910   10.9550 C.3     3  ASP3        0.0714
    206 CG         14.2550   16.8530   10.9720 C.2     3  ASP3        0.0525
    207 OD1        13.4860   17.5570   10.2810 O.co2   3  ASP3       -0.5491
    208 OD2        13.7460   15.9680   11.7090 O.co2   3  ASP3       -0.5491
    209 N          18.2710   19.9290   14.8920 N.3     1  LYS1       -0.1245
    210 CA         17.1380   19.4110   15.6480 C.3     1  LYS1        0.1561
    211 C          17.1230   20.0340   17.0430 C.2     1  LYS1        0.2260
    212 O          17.8200   19.5760   17.9530 O.2     1  LYS1       -0.2867
    213 CB         17.2040   17.8850   15.7380 C.3     1  LYS1        0.0271
    214 CG         17.0340   17.1810   14.3830 C.3     1  LYS1        0.0035
    215 CD         16.8520   15.6670   14.5500 C.3     1  LYS1        0.0206
    216 CE         18.1830   14.9630   14.5760 C.3     1  LYS1        0.1093
    217 NZ         18.0020   13.4720   14.7070 N.3     1  LYS1       -0.1314
    218 N          15.5790   20.1400   20.0860 N.3     1  TYR1       -0.1227
    219 CA         14.6840   19.4130   20.9660 C.3     1  TYR1        0.1736
    220 C          15.0000   19.6760   22.4470 C.2     1  TYR1        0.2595
    221 O          14.2530   19.2130   23.3030 O.2     1  TYR1       -0.2718
    222 CB         14.7550   17.9010   20.6880 C.3     1  TYR1        0.0548
    223 CG         14.3880   17.4310   19.2800 C.ar    1  TYR1       -0.0200
    224 CD2        14.7370   16.1570   18.8620 C.ar    1  TYR1       -0.0009
    225 CD1        13.6880   18.2400   18.3800 C.ar    1  TYR1       -0.0009
    226 CE2        14.4050   15.6960   17.5920 C.ar    1  TYR1        0.0417
    227 CE1        13.3530   17.7880   17.1070 C.ar    1  TYR1        0.0417
    228 CZ         13.7240   16.5100   16.7200 C.ar    1  TYR1        0.1957
    229 OH         13.4140   16.0260   15.4660 O.3     1  TYR1       -0.2866
    230 N          16.0570   20.4390   22.7390 N.am    2  TYR2       -0.1976
    231 CA         16.6070   20.5730   24.0930 C.3     2  TYR2        0.1639
    232 C          17.0700   22.0000   24.4250 C.2     2  TYR2        0.2290
    233 O          17.5780   22.7270   23.5700 O.2     2  TYR2       -0.2864
    234 CB         17.7790   19.5830   24.2790 C.3     2  TYR2        0.0560
    235 CG         17.4360   18.1230   24.0040 C.ar    2  TYR2       -0.0198
    236 CD1        17.7560   17.5110   22.7780 C.ar    2  TYR2       -0.0009
    237 CD2        16.7980   17.3410   24.9680 C.ar    2  TYR2       -0.0009
    238 CE1        17.4430   16.1750   22.5270 C.ar    2  TYR2        0.0417
    239 CE2        16.4820   16.0000   24.7230 C.ar    2  TYR2        0.0417
    240 CZ         16.8090   15.4190   23.4980 C.ar    2  TYR2        0.1957
    241 OH         16.4970   14.0980   23.2540 O.3     2  TYR2       -0.2866
    242 N          14.1560   17.1140    1.7840 N.3     1  ASN1       -0.1225
    243 CA         13.2740   16.5660    2.8030 C.3     1  ASN1        0.1785
    244 C          13.4660   17.1880    4.1700 C.2     1  ASN1        0.2597
    245 O          14.5670   17.2460    4.6830 O.2     1  ASN1       -0.2718
    246 CB         13.4860   15.0550    2.8800 C.3     1  ASN1        0.1169
    247 CG         12.3970   14.3270    3.6900 C.2     1  ASN1        0.2627
    248 OD1        11.2140   14.4640    3.4160 O.2     1  ASN1       -0.2716
    249 ND2        12.8180   13.5300    4.6640 N.am    1  ASN1       -0.0877
    250 N          12.3560   17.6260    4.7530 N.am    2  ASP2       -0.1976
    251 CA         12.3180   18.1590    6.1220 C.3     2  ASP2        0.1651
    252 C          13.0160   19.5240    6.2020 C.2     2  ASP2        0.2291
    253 O          13.6260   19.9650    5.2320 O.2     2  ASP2       -0.2864
    254 CB         12.8710   17.1270    7.1300 C.3     2  ASP2        0.0714
    255 CG         11.7570   16.4230    7.9150 C.2     2  ASP2        0.0525
    256 OD1        10.6700   17.0080    8.0570 O.co2   2  ASP2       -0.5491
    257 OD2        11.8720   15.2690    8.3860 O.co2   2  ASP2       -0.5491
    258 N          14.4520   21.9830   12.9400 N.3     1  GLN1       -0.1245
    259 CA         13.2820   21.1720   13.2740 C.3     1  GLN1        0.1566
    260 C          13.0580   21.2400   14.7710 C.2     1  GLN1        0.2260
    261 O          14.0090   21.0450   15.5540 O.2     1  GLN1       -0.2867
    262 CB         13.4860   19.7120   12.8620 C.3     1  GLN1        0.0367
    263 CG         12.4350   18.7410   13.3650 C.3     1  GLN1        0.0905
    264 CD         11.1110   18.8600   12.6590 C.2     1  GLN1        0.2608
    265 OE1        10.1430   19.3580   13.2370 O.2     1  GLN1       -0.2717
    266 NE2        11.0450   18.3770   11.4180 N.am    1  GLN1       -0.0878
    267 N           9.6170   20.0530   15.9660 N.3     1  GLY1       -0.1210
    268 CA          8.3170   19.4140   16.1080 C.3     1  GLY1        0.1956
    269 C           8.4010   17.9310   16.4150 C.2     1  GLY1        0.2612
    270 O           9.3260   17.4870   17.0930 O.2     1  GLY1       -0.2717
    271 N           7.4300   17.1820   15.8930 N.am    2  TRP2       -0.1962
    272 CA          7.2510   15.7250   16.0720 C.3     2  TRP2        0.1768
    273 C           6.5440   15.4140   17.4010 C.2     2  TRP2        0.2620
    274 O           5.7920   14.4410   17.4990 O.2     2  TRP2       -0.2715
    275 CB          8.5500   14.9160   15.9240 C.3     2  TRP2        0.0551
    276 CG          9.2390   15.0120   14.5440 C.2     2  TRP2       -0.0165
    277 CD1        10.4970   15.4680   14.2960 C.3     2  TRP2        0.1477
    278 CD2         8.7070   14.6080   13.2690 C.ar    2  TRP2        0.0113
    279 NE1        10.7770   15.3960   12.9520 N.2     2  TRP2       -0.2659
    280 CE2         9.7000   14.8660   12.2960 C.ar    2  TRP2        0.0758
    281 CE3         7.4890   14.0670   12.8440 C.ar    2  TRP2        0.0009
    282 CZ2         9.5090   14.6100   10.9260 C.ar    2  TRP2        0.0187
    283 CZ3         7.2980   13.8090   11.4620 C.ar    2  TRP2        0.0001
    284 CH2         8.3080   14.0760   10.5360 C.ar    2  TRP2        0.0015
    285 N           6.7940   16.2370   18.4150 N.am    3  THR3       -0.1951
    286 CA          6.0810   16.1370   19.6860 C.3     3  THR3        0.1897
    287 C           6.1260   17.4790   20.4150 C.2     3  THR3        0.2313
    288 O           6.8470   18.3830   20.0080 O.2     3  THR3       -0.2863
    289 CB          6.6820   15.0040   20.5420 C.3     3  THR3        0.1794
    290 OG1         5.9330   14.8550   21.7550 O.3     3  THR3       -0.2208
    291 CG2         8.0750   15.3350   21.0120 C.3     3  THR3        0.0378
    292 N           7.2270   20.0580   23.1750 N.3     1  ARG1       -0.1245
    293 CA          8.5200   20.2400   23.8410 C.3     1  ARG1        0.1563
    294 C           8.5760   21.5280   24.6690 C.2     1  ARG1        0.2260
    295 O           8.0000   22.5460   24.2840 O.2     1  ARG1       -0.2867
    296 CB          9.6410   20.2830   22.8010 C.3     1  ARG1        0.0307
    297 CG          9.6590   19.0950   21.8610 C.3     1  ARG1        0.0489
    298 CD         10.7070   19.2070   20.7860 C.3     1  ARG1        0.2205
    299 NE         10.6170   18.1330   19.8020 N.pl3   1  ARG1       -0.0865
    300 CZ         11.0630   16.8870   19.9730 C.cat   1  ARG1        0.5346
    301 NH2        11.6440   16.5060   21.1050 N.pl3   1  ARG1        0.1354
    302 NH1        10.9350   16.0070   18.9910 N.pl3   1  ARG1        0.1354
    303 N           3.8860   18.1460    6.6960 N.3     1  VAL1       -0.1231
    304 CA          4.1690   16.9580    7.5070 C.3     1  VAL1        0.1692
    305 C           5.6790   16.7820    7.6840 C.2     1  VAL1        0.2591
    306 O           6.1550   16.4810    8.7760 O.2     1  VAL1       -0.2718
    307 CB          3.4980   15.6790    6.9430 C.3     1  VAL1        0.0266
    308 CG2         3.7900   14.4830    7.8420 C.3     1  VAL1        0.0020
    309 CG1         1.9950   15.8780    6.8090 C.3     1  VAL1        0.0020
    310 N           6.4160   16.9910    6.6000 N.am    2  VAL2       -0.1980
    311 CA          7.8560   17.1750    6.6400 C.3     2  VAL2        0.1595
    312 C           8.1000   18.5890    6.1070 C.2     2  VAL2        0.2287
    313 O           8.1320   18.8010    4.8920 O.2     2  VAL2       -0.2864
    314 CB          8.6250   16.1020    5.8000 C.3     2  VAL2        0.0276
    315 CG2         8.7740   14.8270    6.6080 C.3     2  VAL2        0.0022
    316 CG1         7.9410   15.8020    4.4720 C.3     2  VAL2        0.0022
    317 N           7.2970   19.7630   12.5210 N.3     1  SER1       -0.1217
    318 CA          6.4260   18.7240   12.0160 C.3     1  SER1        0.1889
    319 C           5.2750   18.4720   12.9880 C.2     1  SER1        0.2288
    320 O           5.4370   18.6490   14.1850 O.2     1  SER1       -0.2866
    321 CB          7.2230   17.4410   11.8690 C.3     1  SER1        0.2089
    322 OG          8.2110   17.5730   10.8580 O.3     1  SER1       -0.2183
    323 N           4.4580   12.6990   15.3720 N.3     1  TYR1       -0.1241
    324 CA          5.0050   11.4980   14.7150 C.3     1  TYR1        0.1605
    325 C           4.1050   10.3000   14.9920 C.2     1  TYR1        0.2264
    326 O           3.7230    9.5770   14.0750 O.2     1  TYR1       -0.2867
    327 CB          6.4420   11.1990   15.2010 C.3     1  TYR1        0.0534
    328 CG          7.1720   10.0330   14.4970 C.ar    1  TYR1       -0.0201
    329 CD1         7.2040    9.9270   13.1010 C.ar    1  TYR1       -0.0009
    330 CD2         7.8450    9.0520   15.2370 C.ar    1  TYR1       -0.0009
    331 CE1         7.8820    8.8650   12.4600 C.ar    1  TYR1        0.0417
    332 CE2         8.5170    7.9850   14.6090 C.ar    1  TYR1        0.0417
    333 CZ          8.5310    7.8980   13.2220 C.ar    1  TYR1        0.1957
    334 OH          9.1970    6.8510   12.5980 O.3     1  TYR1       -0.2866
@<TRIPOS>UNITY_ATOM_ATTR
7 1
charge -1
45 1
charge -1
104 1
charge -1
158 1
charge -1
171 1
charge -1
199 1
charge -1
207 1
charge -1
256 1
charge -1
@<TRIPOS>BOND
     1     1     2    1
     2     2     5    1
     3     2     3    1
     4     3     4    2
     5     5     6    1
     6     6     7   ar
     7     6     8   ar
     8     9    10    1
     9    10    13    1
    10    10    11    1
    11    11    12    2
    12    11    21   am
    13    13    14    1
    14    14    16   ar
    15    14    15   ar
    16    15    17   ar
    17    16    18   ar
    18    17    19   ar
    19    18    19   ar
    20    19    20    1
    21    21    22    1
    22    22    25    1
    23    22    23    1
    24    23    24    2
    25    25    26    1
    26    26    27    1
    27    27    28    2
    28    27    29   am
    29    30    31    1
    30    31    34    1
    31    31    32    1
    32    32    33    2
    33    34    35    1
    34    35    36    1
    35    36    37    1
    36    37    38    1
    37    39    40    1
    38    40    43    1
    39    40    41    1
    40    41    42    2
    41    41    47   am
    42    43    44    1
    43    44    45   ar
    44    44    46   ar
    45    47    48    1
    46    48    49    1
    47    48    51    1
    48    49    50    2
    49    51    52    1
    50    53    54    1
    51    54    55    1
    52    54    57    1
    53    55    56    2
    54    57    58    1
    55    58    59    1
    56    59    60    1
    57    60    61    2
    58    61    62    1
    59    61    63    1
    60    64    65    1
    61    65    66    1
    62    65    68    1
    63    66    67    2
    64    66    75   am
    65    68    69    1
    66    69    70   ar
    67    69    71   ar
    68    70    72   ar
    69    71    73   ar
    70    72    74   ar
    71    73    74   ar
    72    75    76    1
    73    76    77    1
    74    76    79    1
    75    77    83   am
    76    77    78    2
    77    79    80    1
    78    80    82   am
    79    80    81    2
    80    83    84    1
    81    84    87    1
    82    84    85    1
    83    85    86    2
    84    85    90   am
    85    87    89    1
    86    87    88    1
    87    90    91    1
    88    91    94    1
    89    91    92    1
    90    92    93    2
    91    92    98   am
    92    94    95    1
    93    95    96    1
    94    96    97    1
    95    98    99    1
    96    99   102    1
    97    99   100    1
    98   100   101    2
    99   100   106   am
   100   102   103    1
   101   103   105   ar
   102   103   104   ar
   103   106   107    1
   104   107   110    1
   105   107   108    1
   106   108   117   am
   107   108   109    2
   108   110   111    1
   109   111   113   ar
   110   111   112   ar
   111   112   114   ar
   112   113   115   ar
   113   114   116   ar
   114   115   116   ar
   115   117   118    1
   116   118   121    1
   117   118   119    1
   118   119   120    2
   119   121   122    1
   120   122   124   am
   121   122   123    2
   122   125   126    1
   123   126   129    1
   124   126   127    1
   125   127   128    2
   126   127   136   am
   127   129   130    1
   128   130   131   ar
   129   130   132   ar
   130   131   133   ar
   131   132   134   ar
   132   133   135   ar
   133   134   135   ar
   134   136   137    1
   135   137   140    1
   136   137   138    1
   137   138   145   am
   138   138   139    2
   139   140   141    1
   140   141   142    1
   141   142   143    2
   142   142   144   am
   143   145   146    1
   144   146   149    1
   145   146   147    1
   146   147   148    2
   147   147   152   am
   148   149   150    1
   149   149   151    1
   150   152   153    1
   151   153   154    1
   152   153   156    1
   153   154   155    2
   154   154   160   am
   155   156   157    1
   156   157   158   ar
   157   157   159   ar
   158   160   161    1
   159   161   162    1
   160   162   163    2
   161   164   165    1
   162   165   166    1
   163   165   168    1
   164   166   167    2
   165   168   169    1
   166   169   170    1
   167   170   172   ar
   168   170   171   ar
   169   173   174    1
   170   174   177    1
   171   174   175    1
   172   175   176    2
   173   177   178    1
   174   178   179   ar
   175   178   180   ar
   176   179   181   ar
   177   180   182   ar
   178   181   183   ar
   179   182   183   ar
   180   183   184    1
   181   185   186    1
   182   186   189    1
   183   186   187    1
   184   187   188    2
   185   187   193   am
   186   189   190    1
   187   190   192   am
   188   190   191    2
   189   193   194    1
   190   194   197    1
   191   194   195    1
   192   195   196    2
   193   195   201   am
   194   197   198    1
   195   198   200   ar
   196   198   199   ar
   197   201   202    1
   198   202   203    1
   199   202   205    1
   200   203   204    2
   201   205   206    1
   202   206   207   ar
   203   206   208   ar
   204   209   210    1
   205   210   213    1
   206   210   211    1
   207   211   212    2
   208   213   214    1
   209   214   215    1
   210   215   216    1
   211   216   217    1
   212   218   219    1
   213   219   222    1
   214   219   220    1
   215   220   230   am
   216   220   221    2
   217   222   223    1
   218   223   225   ar
   219   223   224   ar
   220   224   226   ar
   221   225   227   ar
   222   226   228   ar
   223   227   228   ar
   224   228   229    1
   225   230   231    1
   226   231   234    1
   227   231   232    1
   228   232   233    2
   229   234   235    1
   230   235   236   ar
   231   235   237   ar
   232   236   238   ar
   233   237   239   ar
   234   238   240   ar
   235   239   240   ar
   236   240   241    1
   237   242   243    1
   238   243   246    1
   239   243   244    1
   240   244   245    2
   241   244   250   am
   242   246   247    1
   243   247   248    2
   244   247   249   am
   245   250   251    1
   246   251   252    1
   247   251   254    1
   248   252   253    2
   249   254   255    1
   250   255   256   ar
   251   255   257   ar
   252   258   259    1
   253   259   262    1
   254   259   260    1
   255   260   261    2
   256   262   263    1
   257   263   264    1
   258   264   266   am
   259   264   265    2
   260   267   268    1
   261   268   269    1
   262   269   271   am
   263   269   270    2
   264   271   272    1
   265   272   275    1
   266   272   273    1
   267   273   274    2
   268   273   285   am
   269   275   276    1
   270   276   278    2
   271   276   277    1
   272   277   279    1
   273   278   280   ar
   274   278   281   ar
   275   279   280    2
   276   280   282   ar
   277   281   283   ar
   278   282   284   ar
   279   283   284   ar
   280   285   286    1
   281   286   287    1
   282   286   289    1
   283   287   288    2
   284   289   291    1
   285   289   290    1
   286   292   293    1
   287   293   296    1
   288   293   294    1
   289   294   295    2
   290   296   297    1
   291   297   298    1
   292   298   299    1
   293   299   300    2
   294   300   302    1
   295   300   301    1
   296   303   304    1
   297   304   307    1
   298   304   305    1
   299   305   310   am
   300   305   306    2
   301   307   309    1
   302   307   308    1
   303   310   311    1
   304   311   314    1
   305   311   312    1
   306   312   313    2
   307   314   316    1
   308   314   315    1
   309   317   318    1
   310   318   321    1
   311   318   319    1
   312   319   320    2
   313   321   322    1
   314   323   324    1
   315   324   325    1
   316   324   327    1
   317   325   326    2
   318   327   328    1
   319   328   329   ar
   320   328   330   ar
   321   329   331   ar
   322   330   332   ar
   323   331   333   ar
   324   332   333   ar
   325   333   334    1
