@<TRIPOS>MOLECULE
./2c96/protein.pdb
 265 252 0 0 0
SMALL
GASTEIGER

@<TRIPOS>ATOM
      1 N          34.1090   31.1140   -3.4660 N.3     1  LEU1       -0.1231
      2 CA         33.7820   30.7690   -2.0590 C.3     1  LEU1        0.1693
      3 C          34.2510   31.8680   -1.1110 C.2     1  LEU1        0.2592
      4 O          35.4480   32.1690   -1.0470 O.2     1  LEU1       -0.2718
      5 CB         34.4570   29.4480   -1.7140 C.3     1  LEU1        0.0284
      6 CG         33.5980   28.2390   -1.9990 C.3     1  LEU1        0.0019
      7 CD1        33.2660   28.2270   -3.4430 C.3     1  LEU1        0.0001
      8 CD2        34.3680   27.0410   -1.6400 C.3     1  LEU1        0.0001
      9 N          33.3140   32.5030   -0.4130 N.am    2  LEU2       -0.1966
     10 CA         33.6350   33.5660    0.5030 C.3     2  LEU2        0.1728
     11 C          33.9380   33.0130    1.8590 C.2     2  LEU2        0.2616
     12 O          33.3910   32.0080    2.2260 O.2     2  LEU2       -0.2715
     13 CB         32.4770   34.5440    0.6220 C.3     2  LEU2        0.0311
     14 CG         31.7200   34.9380   -0.6490 C.3     2  LEU2        0.0022
     15 CD2        30.5000   35.7510   -0.3210 C.3     2  LEU2        0.0001
     16 CD1        32.6660   35.6420   -1.6310 C.3     2  LEU2        0.0001
     17 N          34.7560   33.7300    2.6140 N.am    3  GLY3       -0.1955
     18 CA         35.1100   33.3730    3.9590 C.3     3  GLY3        0.1869
     19 C          36.6040   33.4330    4.2410 C.2     3  GLY3        0.2309
     20 O          37.4610   33.0010    3.4340 O.2     3  GLY3       -0.2863
     21 N          36.7900   27.8870    8.5310 N.3     1  PHE1       -0.1241
     22 CA         36.5140   27.6770    7.0870 C.3     1  PHE1        0.1605
     23 C          37.7230   27.4530    6.2640 C.2     1  PHE1        0.2264
     24 O          37.7800   26.6160    5.3390 O.2     1  PHE1       -0.2867
     25 CB         35.7420   28.8390    6.5690 C.3     1  PHE1        0.0534
     26 CG         35.2940   28.6700    5.1380 C.ar    1  PHE1       -0.0203
     27 CD2        34.3590   27.7400    4.8220 C.ar    1  PHE1       -0.0042
     28 CD1        35.8920   29.4440    4.1430 C.ar    1  PHE1       -0.0042
     29 CE2        33.9580   27.5870    3.4610 C.ar    1  PHE1       -0.0003
     30 CE1        35.4890   29.3460    2.8630 C.ar    1  PHE1       -0.0003
     31 CZ         34.4890   28.4040    2.5370 C.ar    1  PHE1       -0.0000
     32 N          38.9560   23.9860    6.5790 N.3     1  VAL1       -0.1231
     33 CA         38.1620   23.1040    5.7350 C.3     1  VAL1        0.1692
     34 C          38.7260   23.1500    4.3290 C.2     1  VAL1        0.2591
     35 O          38.9040   22.1240    3.6900 O.2     1  VAL1       -0.2718
     36 CB         36.6430   23.5170    5.6780 C.3     1  VAL1        0.0266
     37 CG1        35.9150   22.7550    4.6250 C.3     1  VAL1        0.0020
     38 CG2        36.0190   23.2340    7.0210 C.3     1  VAL1        0.0020
     39 N          38.9130   24.3370    3.7450 N.am    2  LEU2       -0.1980
     40 CA         39.4570   24.3710    2.3960 C.3     2  LEU2        0.1596
     41 C          40.8180   23.6600    2.2940 C.2     2  LEU2        0.2287
     42 O          41.0550   23.0150    1.3250 O.2     2  LEU2       -0.2864
     43 CB         39.6640   25.8060    1.8790 C.3     2  LEU2        0.0297
     44 CG         38.4020   26.6310    1.8870 C.3     2  LEU2        0.0022
     45 CD1        38.5650   27.8980    1.1610 C.3     2  LEU2        0.0001
     46 CD2        37.3280   25.8810    1.2180 C.3     2  LEU2        0.0001
     47 N          27.4400   18.9870    8.3510 N.2     1  GLY1       -0.1413
     48 CA         27.0590   20.3860    8.5900 C.2     1  GLY1        0.1814
     49 C          25.6100   20.6950    8.3960 C.2     1  GLY1        0.2864
     50 O          24.8870   19.9460    7.7740 O.2     1  GLY1       -0.2666
     51 N          25.1960   21.8460    8.9250 N.am    2  GLU2       -0.1926
     52 CA         23.8040   22.2270    8.9950 C.3     2  GLU2        0.1735
     53 C          23.3440   22.5740    7.5730 C.2     2  GLU2        0.2616
     54 O          24.1620   22.6920    6.6770 O.2     2  GLU2       -0.2715
     55 CB         23.6420   23.4120    9.9030 C.3     2  GLU2        0.0370
     56 CG         23.7320   23.0510   11.3830 C.3     2  GLU2        0.0440
     57 CD         23.6110   24.2560   12.2640 C.2     2  GLU2        0.0504
     58 OE1        23.1680   25.3650   11.8100 O.co2   2  GLU2       -0.5492
     59 OE2        24.0850   24.0920   13.4130 O.co2   2  GLU2       -0.5492
     60 N          22.0690   22.7670    7.3890 N.am    3  ARG3       -0.1963
     61 CA         21.5560   23.1380    6.0900 C.3     3  ARG3        0.1729
     62 C          22.1930   24.4790    5.6950 C.2     3  ARG3        0.2617
     63 O          22.3800   25.3890    6.5440 O.2     3  ARG3       -0.2715
     64 CB         20.0880   23.2340    6.0860 C.3     3  ARG3        0.0348
     65 CG         19.4250   24.3960    6.7850 C.3     3  ARG3        0.0492
     66 CD         17.9460   24.4810    6.4650 C.3     3  ARG3        0.2205
     67 NE         17.2310   25.4700    7.3190 N.pl3   3  ARG3       -0.0865
     68 CZ         16.8220   25.2990    8.5960 C.cat   3  ARG3        0.5346
     69 NH2        17.0130   24.2320    9.2520 N.pl3   3  ARG3        0.1354
     70 NH1        16.2800   26.3140    9.2390 N.pl3   3  ARG3        0.1354
     71 N          22.4250   24.6980    4.4100 N.am    4  GLY4       -0.1940
     72 CA         22.8580   25.9740    3.9710 C.3     4  GLY4        0.2014
     73 C          24.3110   26.3360    4.2450 C.2     4  GLY4        0.2640
     74 O          24.6550   27.4900    4.0900 O.2     4  GLY4       -0.2714
     75 N          25.1050   25.3710    4.6570 N.am    5  THR5       -0.1936
     76 CA         26.4800   25.6530    5.0640 C.3     5  THR5        0.2028
     77 C          27.5100   25.5360    3.9880 C.2     5  THR5        0.2643
     78 O          28.6960   25.8530    4.2340 O.2     5  THR5       -0.2714
     79 CB         26.9230   24.8430    6.2700 C.3     5  THR5        0.1808
     80 OG1        26.7200   23.4250    6.0400 O.3     5  THR5       -0.2208
     81 CG2        26.2030   25.2830    7.4950 C.3     5  THR5        0.0379
     82 N          27.0940   25.0920    2.8220 N.am    6  GLY6       -0.1939
     83 CA         27.9940   24.9260    1.6640 C.3     6  GLY6        0.2014
     84 C          28.5200   23.4970    1.4560 C.2     6  GLY6        0.2639
     85 O          29.5110   23.2850    0.8020 O.2     6  GLY6       -0.2714
     86 N          27.8040   22.4870    1.9220 N.am    7  LYS7       -0.1963
     87 CA         28.2730   21.0980    1.8040 C.3     7  LYS7        0.1728
     88 C          28.3410   20.6620    0.3280 C.2     7  LYS7        0.2616
     89 O          29.3380   20.0810   -0.0770 O.2     7  LYS7       -0.2715
     90 CB         27.3480   20.1550    2.5740 C.3     7  LYS7        0.0311
     91 CG         27.3490   20.3810    4.0760 C.3     7  LYS7        0.0038
     92 CD         26.6100   19.3350    4.7870 C.3     7  LYS7        0.0206
     93 CE         25.2090   19.3160    4.3750 C.3     7  LYS7        0.1093
     94 NZ         24.3860   20.5450    4.6220 N.3     7  LYS7       -0.1314
     95 N          27.3260   21.0320   -0.4530 N.am    8  GLU8       -0.1963
     96 CA         27.3350   20.7660   -1.9040 C.3     8  GLU8        0.1731
     97 C          28.4100   21.4620   -2.6670 C.2     8  GLU8        0.2616
     98 O          29.0650   20.8260   -3.5230 O.2     8  GLU8       -0.2715
     99 CB         26.0050   21.0050   -2.5410 C.3     8  GLU8        0.0370
    100 CG         25.9850   20.5810   -4.0060 C.3     8  GLU8        0.0440
    101 CD         24.6170   20.2260   -4.5120 C.2     8  GLU8        0.0504
    102 OE2        23.6760   20.2600   -3.7040 O.co2   8  GLU8       -0.5492
    103 OE1        24.4670   19.9560   -5.7240 O.co2   8  GLU8       -0.5492
    104 N          28.6740   22.7200   -2.3580 N.am    9  LEU9       -0.1963
    105 CA         29.8350   23.4520   -2.9090 C.3     9  LEU9        0.1728
    106 C          31.1380   22.7880   -2.5740 C.2     9  LEU9        0.2616
    107 O          31.9970   22.6540   -3.3860 O.2     9  LEU9       -0.2715
    108 CB         29.8450   24.9130   -2.3900 C.3     9  LEU9        0.0311
    109 CG         28.9410   25.8930   -3.0690 C.3     9  LEU9        0.0022
    110 CD2        29.2170   27.2450   -2.4320 C.3     9  LEU9        0.0001
    111 CD1        29.2160   25.9720   -4.6120 C.3     9  LEU9        0.0001
    112 N          31.3180   22.3100   -1.3180 N.am   10  ILE10      -0.1977
    113 CA         32.5240   21.5650   -0.9850 C.3    10  ILE10       0.1596
    114 C          32.6390   20.2350   -1.7310 C.2    10  ILE10       0.2287
    115 O          33.7430   19.8270   -2.1730 O.2    10  ILE10      -0.2864
    116 CB         32.5310   21.3490    0.5640 C.3    10  ILE10       0.0276
    117 CG1        32.6730   22.7040    1.2140 C.3    10  ILE10       0.0022
    118 CG2        33.5740   20.3820    1.0060 C.3    10  ILE10       0.0022
    119 CD1        34.0600   23.2610    1.1390 C.3    10  ILE10       0.0001
    120 N          20.1050   14.0090   -4.0000 N.3     1  ASN1       -0.1240
    121 CA         19.6490   14.2480   -2.6660 C.3     1  ASN1        0.1653
    122 C          18.7410   13.1300   -2.3740 C.2     1  ASN1        0.2266
    123 O          17.7030   12.9840   -3.0600 O.2     1  ASN1       -0.2867
    124 CB         18.9270   15.5850   -2.6290 C.3     1  ASN1        0.1155
    125 CG         18.5790   16.0390   -1.2260 C.2     1  ASN1        0.2627
    126 OD1        18.9920   17.1000   -0.7720 O.2     1  ASN1       -0.2716
    127 ND2        17.8530   15.2630   -0.5570 N.am    1  ASN1       -0.0877
    128 N          27.9180   12.7150   -5.4320 N.3     1  PHE1       -0.1241
    129 CA         27.5900   13.4080   -4.1760 C.3     1  PHE1        0.1605
    130 C          26.2280   12.9980   -3.7020 C.2     1  PHE1        0.2264
    131 O          25.1980   13.2920   -4.3770 O.2     1  PHE1       -0.2867
    132 CB         27.5930   14.9830   -4.3190 C.3     1  PHE1        0.0534
    133 CG         27.1010   15.7350   -3.0790 C.ar    1  PHE1       -0.0203
    134 CD2        27.7410   15.5840   -1.7950 C.ar    1  PHE1       -0.0042
    135 CD1        26.0470   16.6460   -3.1530 C.ar    1  PHE1       -0.0042
    136 CE2        27.3120   16.2370   -0.6960 C.ar    1  PHE1       -0.0003
    137 CE1        25.6060   17.3210   -2.0290 C.ar    1  PHE1       -0.0003
    138 CZ         26.2150   17.1660   -0.7870 C.ar    1  PHE1       -0.0000
    139 N          23.6200   13.7910   -0.7640 N.3     1  ASP1       -0.1227
    140 CA         23.2690   14.6460    0.3550 C.3     1  ASP1        0.1748
    141 C          22.1770   13.9390    1.0670 C.2     1  ASP1        0.2595
    142 O          21.4660   13.1180    0.4890 O.2     1  ASP1       -0.2718
    143 CB         22.8040   16.1070   -0.0940 C.3     1  ASP1        0.0701
    144 CG         22.6620   17.1770    1.1120 C.2     1  ASP1        0.0523
    145 OD2        23.0300   16.9350    2.2990 O.co2   1  ASP1       -0.5491
    146 OD1        22.1670   18.4040    0.9640 O.co2   1  ASP1       -0.5491
    147 N          21.9790   14.2830    2.3090 N.am    2  GLU2       -0.1979
    148 CA         20.9330   13.7010    3.0580 C.3     2  GLU2        0.1600
    149 C          20.9660   12.1880    3.1420 C.2     2  GLU2        0.2287
    150 O          19.9920   11.5170    2.8050 O.2     2  GLU2       -0.2864
    151 CB         19.5870   14.2290    2.5700 C.3     2  GLU2        0.0356
    152 CG         19.4320   15.6280    3.0870 C.3     2  GLU2        0.0439
    153 CD         18.1340   16.2240    2.7120 C.2     2  GLU2        0.0504
    154 OE1        17.7550   16.0900    1.4860 O.co2   2  GLU2       -0.5492
    155 OE2        17.5430   16.7990    3.6650 O.co2   2  GLU2       -0.5492
    156 N          26.9010   13.7050    2.6150 N.3     1  ALA1       -0.1231
    157 CA         26.6460   14.7920    3.5420 C.3     1  ALA1        0.1694
    158 C          25.4310   14.6150    4.4660 C.2     1  ALA1        0.2592
    159 O          24.4730   13.9520    4.0920 O.2     1  ALA1       -0.2718
    160 CB         26.5680   16.0780    2.7610 C.3     1  ALA1        0.0304
    161 N          25.5080   15.1200    5.6780 N.am    2  THR2       -0.1953
    162 CA         24.4210   15.1090    6.6380 C.3     2  THR2        0.1897
    163 C          24.6140   16.0980    7.8210 C.2     2  THR2        0.2313
    164 O          25.7220   16.5820    7.9770 O.2     2  THR2       -0.2863
    165 CB         24.3250   13.6450    7.1720 C.3     2  THR2        0.1794
    166 OG1        23.3680   13.5400    8.2300 O.3     2  THR2       -0.2208
    167 CG2        25.6010   13.2680    7.8540 C.3     2  THR2        0.0378
    168 N          31.9040   21.2290    8.3350 N.3     1  LEU1       -0.1245
    169 CA         31.6450   22.6310    7.9580 C.3     1  LEU1        0.1561
    170 C          31.0000   23.4100    9.0620 C.2     1  LEU1        0.2260
    171 O          29.9290   23.0350    9.5640 O.2     1  LEU1       -0.2867
    172 CB         30.6910   22.6100    6.8330 C.3     1  LEU1        0.0270
    173 CG         31.2140   22.7100    5.4470 C.3     1  LEU1        0.0019
    174 CD1        29.9770   22.7960    4.6090 C.3     1  LEU1        0.0001
    175 CD2        32.0330   24.0260    5.1940 C.3     1  LEU1        0.0001
    176 N          27.2600   29.2680   10.3340 N.3     1  LEU1       -0.1245
    177 CA         27.5810   30.6650   10.2120 C.3     1  LEU1        0.1561
    178 C          27.8310   31.3190   11.5900 C.2     1  LEU1        0.2260
    179 O          28.7130   32.2050   11.7130 O.2     1  LEU1       -0.2867
    180 CB         26.4400   31.3290    9.4100 C.3     1  LEU1        0.0270
    181 CG         26.6180   32.6150    8.7690 C.3     1  LEU1        0.0019
    182 CD1        27.9200   32.7890    7.9440 C.3     1  LEU1        0.0001
    183 CD2        25.3070   32.9240    7.9840 C.3     1  LEU1        0.0001
    184 N          31.2530   31.1210   12.4840 N.3     1  ARG1       -0.1245
    185 CA         32.1320   31.8110   11.5260 C.3     1  ARG1        0.1563
    186 C          31.7050   33.2980   11.6160 C.2     1  ARG1        0.2260
    187 O          31.4250   33.9470   10.6150 O.2     1  ARG1       -0.2867
    188 CB         31.9050   31.3740   10.0310 C.3     1  ARG1        0.0307
    189 CG         31.8940   29.9340    9.6800 C.3     1  ARG1        0.0489
    190 CD         31.3880   29.6370    8.2720 C.3     1  ARG1        0.2205
    191 NE         32.1550   30.3770    7.2880 N.pl3   1  ARG1       -0.0865
    192 CZ         32.0680   30.1850    5.9860 C.cat   1  ARG1        0.5346
    193 NH2        31.2920   29.2040    5.4900 N.pl3   1  ARG1        0.1354
    194 NH1        32.8130   30.9000    5.1750 N.pl3   1  ARG1        0.1354
    195 N          32.7610   36.0690    9.3590 N.3     1  ASP1       -0.1241
    196 CA         32.3320   36.0210    8.0050 C.3     1  ASP1        0.1616
    197 C          30.9390   36.5530    7.7680 C.2     1  ASP1        0.2264
    198 O          30.5370   36.7500    6.6410 O.2     1  ASP1       -0.2867
    199 CB         32.3910   34.5840    7.4830 C.3     1  ASP1        0.0687
    200 CG         33.7780   34.0920    7.2460 C.2     1  ASP1        0.0522
    201 OD1        34.7240   34.9000    7.0890 O.co2   1  ASP1       -0.5491
    202 OD2        34.0380   32.8660    7.1170 O.co2   1  ASP1       -0.5491
    203 N          30.1780   38.3070    4.2210 N.3     1  MET1       -0.1245
    204 CA         29.2530   37.7960    3.3000 C.3     1  MET1        0.1570
    205 C          28.0300   38.7130    3.1130 C.2     1  MET1        0.2261
    206 O          27.4840   38.7980    2.0140 O.2     1  MET1       -0.2867
    207 CB         28.8180   36.3810    3.7620 C.3     1  MET1        0.0387
    208 CG         29.9720   35.4150    3.7920 C.3     1  MET1        0.0595
    209 SD         29.3140   33.7610    4.2670 S.3     1  MET1       -0.1393
    210 CE         29.7350   32.9560    2.9870 C.3     1  MET1        0.0692
    211 N          28.8100   41.3850    0.6630 N.3     1  TYR1       -0.1227
    212 CA         28.8730   40.8430   -0.7050 C.3     1  TYR1        0.1736
    213 C          27.5340   40.6330   -1.2960 C.2     1  TYR1        0.2595
    214 O          27.2400   41.0410   -2.4250 O.2     1  TYR1       -0.2718
    215 CB         29.6930   39.5280   -0.7060 C.3     1  TYR1        0.0548
    216 CG         29.8170   38.9010   -2.0850 C.ar    1  TYR1       -0.0200
    217 CD1        30.8980   39.2230   -2.9300 C.ar    1  TYR1       -0.0009
    218 CD2        28.8610   38.0310   -2.5410 C.ar    1  TYR1       -0.0009
    219 CE1        30.9650   38.6780   -4.2450 C.ar    1  TYR1        0.0417
    220 CE2        28.9470   37.4730   -3.8300 C.ar    1  TYR1        0.0417
    221 CZ         30.0050   37.8060   -4.6390 C.ar    1  TYR1        0.1957
    222 OH         30.0790   37.2490   -5.9080 O.3     1  TYR1       -0.2866
    223 N          26.6230   39.9950   -0.5270 N.am    2  PHE2       -0.1976
    224 CA         25.2940   39.7350   -1.0170 C.3     2  PHE2        0.1639
    225 C          24.4800   41.0030   -1.2260 C.2     2  PHE2        0.2290
    226 O          23.7350   41.1260   -2.2110 O.2     2  PHE2       -0.2864
    227 CB         24.5460   38.7910   -0.0100 C.3     2  PHE2        0.0560
    228 CG         25.1190   37.4050    0.0680 C.ar    2  PHE2       -0.0200
    229 CD2        25.1400   36.7260    1.2870 C.ar    2  PHE2       -0.0042
    230 CD1        25.5760   36.7730   -1.0130 C.ar    2  PHE2       -0.0042
    231 CE2        25.6330   35.4040    1.3880 C.ar    2  PHE2       -0.0003
    232 CE1        26.0770   35.4360   -0.9040 C.ar    2  PHE2       -0.0003
    233 CZ         26.1430   34.8110    0.3250 C.ar    2  PHE2       -0.0000
    234 N          19.3920   28.6110    8.9480 N.3     1  GLY1       -0.1225
    235 CA         19.5850   28.2490    7.5400 C.3     1  GLY1        0.1811
    236 C          20.8900   28.6900    6.9180 C.2     1  GLY1        0.2280
    237 O          21.0630   28.6620    5.7150 O.2     1  GLY1       -0.2866
    238 N          24.1190   30.0480    5.2780 N.3     1  ILE1       -0.1231
    239 CA         24.4620   30.9800    4.1700 C.3     1  ILE1        0.1692
    240 C          23.3230   31.1620    3.2060 C.2     1  ILE1        0.2591
    241 O          23.0830   32.2570    2.7310 O.2     1  ILE1       -0.2718
    242 CB         25.7740   30.5740    3.4850 C.3     1  ILE1        0.0266
    243 CG1        26.8570   30.4900    4.5440 C.3     1  ILE1        0.0019
    244 CG2        26.1000   31.5050    2.4170 C.3     1  ILE1        0.0020
    245 CD1        27.9810   29.6850    4.1920 C.3     1  ILE1        0.0001
    246 N          22.5140   30.1450    2.9850 N.am    2  ARG2       -0.1980
    247 CA         21.3490   30.2940    2.1170 C.3     2  ARG2        0.1597
    248 C          20.4180   31.3280    2.7170 C.2     2  ARG2        0.2287
    249 O          19.8720   32.2340    2.0280 O.2     2  ARG2       -0.2864
    250 CB         20.5990   28.9660    1.9880 C.3     2  ARG2        0.0334
    251 CG         19.4360   28.9940    1.1090 C.3     2  ARG2        0.0492
    252 CD         18.7020   27.7290    1.1050 C.3     2  ARG2        0.2205
    253 NE         19.3200   26.7260    0.2930 N.pl3   2  ARG2       -0.0865
    254 CZ         19.7760   25.5650    0.7550 C.cat   2  ARG2        0.5346
    255 NH2        19.7830   25.2420    2.0530 N.pl3   2  ARG2        0.1354
    256 NH1        20.2940   24.7290   -0.0660 N.pl3   2  ARG2        0.1354
    257 N          21.8030   35.0560    2.5460 N.3     1  LYS1       -0.1245
    258 CA         21.6960   35.6990    1.2430 C.3     1  LYS1        0.1561
    259 C          20.2700   36.1880    1.0280 C.2     1  LYS1        0.2260
    260 O          20.0410   37.2850    0.5360 O.2     1  LYS1       -0.2867
    261 CB         22.0860   34.7390    0.1180 C.3     1  LYS1        0.0271
    262 CG         21.8940   35.2340   -1.2530 C.3     1  LYS1        0.0035
    263 CD         22.5510   34.3070   -2.3060 C.3     1  LYS1        0.0206
    264 CE         22.1020   34.7580   -3.7740 C.3     1  LYS1        0.1093
    265 NZ         22.8810   34.2170   -4.8170 N.3     1  LYS1       -0.1314
@<TRIPOS>UNITY_ATOM_ATTR
58 1
charge -1
102 1
charge -1
145 1
charge -1
154 1
charge -1
201 1
charge -1
@<TRIPOS>BOND
     1     1     2    1
     2     2     5    1
     3     2     3    1
     4     3     4    2
     5     3     9   am
     6     5     6    1
     7     6     7    1
     8     6     8    1
     9     9    10    1
    10    10    13    1
    11    10    11    1
    12    11    12    2
    13    11    17   am
    14    13    14    1
    15    14    16    1
    16    14    15    1
    17    17    18    1
    18    18    19    1
    19    19    20    2
    20    21    22    1
    21    22    23    1
    22    22    25    1
    23    23    24    2
    24    25    26    1
    25    26    28   ar
    26    26    27   ar
    27    27    29   ar
    28    28    30   ar
    29    29    31   ar
    30    30    31   ar
    31    32    33    1
    32    33    34    1
    33    33    36    1
    34    34    35    2
    35    34    39   am
    36    36    37    1
    37    36    38    1
    38    39    40    1
    39    40    43    1
    40    40    41    1
    41    41    42    2
    42    43    44    1
    43    44    45    1
    44    44    46    1
    45    47    48    2
    46    48    49    1
    47    49    50    2
    48    49    51   am
    49    51    52    1
    50    52    53    1
    51    52    55    1
    52    53    54    2
    53    53    60   am
    54    55    56    1
    55    56    57    1
    56    57    58   ar
    57    57    59   ar
    58    60    61    1
    59    61    62    1
    60    61    64    1
    61    62    71   am
    62    62    63    2
    63    64    65    1
    64    65    66    1
    65    66    67    1
    66    67    68    2
    67    68    70    1
    68    68    69    1
    69    71    72    1
    70    72    73    1
    71    73    74    2
    72    73    75   am
    73    75    76    1
    74    76    77    1
    75    76    79    1
    76    77    82   am
    77    77    78    2
    78    79    80    1
    79    79    81    1
    80    82    83    1
    81    83    84    1
    82    84    85    2
    83    84    86   am
    84    86    87    1
    85    87    88    1
    86    87    90    1
    87    88    95   am
    88    88    89    2
    89    90    91    1
    90    91    92    1
    91    92    93    1
    92    93    94    1
    93    95    96    1
    94    96    97    1
    95    96    99    1
    96    97    98    2
    97    97   104   am
    98    99   100    1
    99   100   101    1
   100   101   103   ar
   101   101   102   ar
   102   104   105    1
   103   105   106    1
   104   105   108    1
   105   106   107    2
   106   106   112   am
   107   108   109    1
   108   109   111    1
   109   109   110    1
   110   112   113    1
   111   113   114    1
   112   113   116    1
   113   114   115    2
   114   116   118    1
   115   116   117    1
   116   117   119    1
   117   120   121    1
   118   121   124    1
   119   121   122    1
   120   122   123    2
   121   124   125    1
   122   125   126    2
   123   125   127   am
   124   128   129    1
   125   129   132    1
   126   129   130    1
   127   130   131    2
   128   132   133    1
   129   133   135   ar
   130   133   134   ar
   131   134   136   ar
   132   135   137   ar
   133   136   138   ar
   134   137   138   ar
   135   139   140    1
   136   140   143    1
   137   140   141    1
   138   141   142    2
   139   141   147   am
   140   143   144    1
   141   144   146   ar
   142   144   145   ar
   143   147   148    1
   144   148   151    1
   145   148   149    1
   146   149   150    2
   147   151   152    1
   148   152   153    1
   149   153   154   ar
   150   153   155   ar
   151   156   157    1
   152   157   160    1
   153   157   158    1
   154   158   159    2
   155   158   161   am
   156   161   162    1
   157   162   165    1
   158   162   163    1
   159   163   164    2
   160   165   167    1
   161   165   166    1
   162   168   169    1
   163   169   172    1
   164   169   170    1
   165   170   171    2
   166   172   173    1
   167   173   174    1
   168   173   175    1
   169   176   177    1
   170   177   180    1
   171   177   178    1
   172   178   179    2
   173   180   181    1
   174   181   182    1
   175   181   183    1
   176   184   185    1
   177   185   188    1
   178   185   186    1
   179   186   187    2
   180   188   189    1
   181   189   190    1
   182   190   191    1
   183   191   192    2
   184   192   194    1
   185   192   193    1
   186   195   196    1
   187   196   199    1
   188   196   197    1
   189   197   198    2
   190   199   200    1
   191   200   201   ar
   192   200   202   ar
   193   203   204    1
   194   204   205    1
   195   204   207    1
   196   205   206    2
   197   207   208    1
   198   208   209    1
   199   209   210    1
   200   211   212    1
   201   212   213    1
   202   212   215    1
   203   213   214    2
   204   213   223   am
   205   215   216    1
   206   216   217   ar
   207   216   218   ar
   208   217   219   ar
   209   218   220   ar
   210   219   221   ar
   211   220   221   ar
   212   221   222    1
   213   223   224    1
   214   224   225    1
   215   224   227    1
   216   225   226    2
   217   227   228    1
   218   228   230   ar
   219   228   229   ar
   220   229   231   ar
   221   230   232   ar
   222   231   233   ar
   223   232   233   ar
   224   234   235    1
   225   235   236    1
   226   236   237    2
   227   238   239    1
   228   239   240    1
   229   239   242    1
   230   240   241    2
   231   240   246   am
   232   242   244    1
   233   242   243    1
   234   243   245    1
   235   246   247    1
   236   247   250    1
   237   247   248    1
   238   248   249    2
   239   250   251    1
   240   251   252    1
   241   252   253    1
   242   253   254    2
   243   254   256    1
   244   254   255    1
   245   257   258    1
   246   258   261    1
   247   258   259    1
   248   259   260    2
   249   261   262    1
   250   262   263    1
   251   263   264    1
   252   264   265    1
