@<TRIPOS>MOLECULE
./1y3i/protein.pdb
 248 243 0 0 0
SMALL
GASTEIGER

@<TRIPOS>ATOM
      1 N          39.0560   12.9990  -17.3870 N.3     1  ASP1       -0.1227
      2 CA         40.3970   13.4080  -16.9890 C.3     1  ASP1        0.1748
      3 C          41.2470   13.7600  -18.2040 C.2     1  ASP1        0.2596
      4 O          42.0100   14.7250  -18.1780 O.2     1  ASP1       -0.2718
      5 CB         41.0860   12.3270  -16.1490 C.3     1  ASP1        0.0701
      6 CG         40.5770   12.2970  -14.7220 C.2     1  ASP1        0.0523
      7 OD2        41.3040   11.9390  -13.7750 O.co2   1  ASP1       -0.5491
      8 OD1        39.3880   12.6460  -14.5420 O.co2   1  ASP1       -0.5491
      9 N          41.1320   12.9970  -19.2840 N.am    2  GLY2       -0.1957
     10 CA         41.9070   13.2770  -20.4810 C.3     2  GLY2        0.1869
     11 C          41.2720   14.3530  -21.3380 C.2     2  GLY2        0.2309
     12 O          41.8560   14.7740  -22.3390 O.2     2  GLY2       -0.2863
     13 N          39.9050   17.2110  -19.7480 N.3     1  PHE1       -0.1227
     14 CA         40.4660   18.3680  -19.0510 C.3     1  PHE1        0.1736
     15 C          41.8960   18.5440  -19.5500 C.2     1  PHE1        0.2595
     16 O          42.3140   19.6150  -19.9680 O.2     1  PHE1       -0.2718
     17 CB         40.4290   18.1730  -17.5510 C.3     1  PHE1        0.0547
     18 CG         40.7760   19.3090  -16.6170 C.ar    1  PHE1       -0.0202
     19 CD2        39.8010   19.7950  -15.7540 C.ar    1  PHE1       -0.0042
     20 CD1        42.0260   19.8970  -16.5540 C.ar    1  PHE1       -0.0042
     21 CE2        40.0700   20.8230  -14.8710 C.ar    1  PHE1       -0.0003
     22 CE1        42.3160   20.9290  -15.6870 C.ar    1  PHE1       -0.0003
     23 CZ         41.3310   21.3910  -14.8330 C.ar    1  PHE1       -0.0000
     24 N          42.6700   17.4580  -19.5020 N.am    2  LEU2       -0.1980
     25 CA         44.0700   17.5520  -19.9120 C.3     2  LEU2        0.1596
     26 C          44.1540   18.0280  -21.3580 C.2     2  LEU2        0.2287
     27 O          45.1170   18.7100  -21.7060 O.2     2  LEU2       -0.2864
     28 CB         44.7770   16.2170  -19.6930 C.3     2  LEU2        0.0297
     29 CG         44.6490   15.6380  -18.2790 C.3     2  LEU2        0.0022
     30 CD1        44.9790   14.1540  -18.2690 C.3     2  LEU2        0.0001
     31 CD2        45.5310   16.3890  -17.2950 C.3     2  LEU2        0.0001
     32 N          40.6820   26.8920  -16.3700 N.3     1  VAL1       -0.1245
     33 CA         39.9380   25.6970  -16.7240 C.3     1  VAL1        0.1561
     34 C          38.9290   25.3180  -15.6450 C.2     1  VAL1        0.2260
     35 O          39.1580   25.5070  -14.4510 O.2     1  VAL1       -0.2867
     36 CB         40.8980   24.5120  -16.9560 C.3     1  VAL1        0.0252
     37 CG2        41.7900   24.3170  -15.7330 C.3     1  VAL1        0.0019
     38 CG1        40.1270   23.2420  -17.2820 C.3     1  VAL1        0.0019
     39 N          31.5860    8.1400  -15.4490 N.3     1  ARG1       -0.1245
     40 CA         32.7450    7.3600  -15.0390 C.3     1  ARG1        0.1563
     41 C          33.7710    8.2600  -14.3440 C.2     1  ARG1        0.2260
     42 O          34.2440    9.2100  -14.9710 O.2     1  ARG1       -0.2867
     43 CB         33.3940    6.6760  -16.2370 C.3     1  ARG1        0.0307
     44 CG         34.4070    5.5920  -15.9340 C.3     1  ARG1        0.0489
     45 CD         35.8190    6.1070  -15.7550 C.3     1  ARG1        0.2205
     46 NE         36.3650    6.7760  -16.9310 N.pl3   1  ARG1       -0.0865
     47 CZ         37.5370    7.3960  -16.9600 C.cat   1  ARG1        0.5346
     48 NH2        38.2910    7.4320  -15.8670 N.pl3   1  ARG1        0.1354
     49 NH1        37.9630    7.9810  -18.0710 N.pl3   1  ARG1        0.1354
     50 N          38.6440   12.7980  -11.4540 N.3     1  PHE1       -0.1227
     51 CA         39.1190   13.4350  -10.2390 C.3     1  PHE1        0.1736
     52 C          38.9980   14.9550  -10.2090 C.2     1  PHE1        0.2595
     53 O          38.3740   15.5040   -9.2990 O.2     1  PHE1       -0.2718
     54 CB         40.6010   13.0670  -10.0290 C.3     1  PHE1        0.0547
     55 CG         40.9870   12.9260   -8.5650 C.ar    1  PHE1       -0.0202
     56 CD2        40.6290   11.7890   -7.8620 C.ar    1  PHE1       -0.0042
     57 CD1        41.6950   13.9200   -7.9180 C.ar    1  PHE1       -0.0042
     58 CE2        40.9770   11.6490   -6.5330 C.ar    1  PHE1       -0.0003
     59 CE1        42.0490   13.7860   -6.5900 C.ar    1  PHE1       -0.0003
     60 CZ         41.6880   12.6480   -5.8960 C.ar    1  PHE1       -0.0000
     61 N          39.6120   15.6000  -11.1830 N.am    2  LEU2       -0.1966
     62 CA         39.7960   17.0340  -11.2830 C.3     2  LEU2        0.1728
     63 C          38.5230   17.8110  -11.5840 C.2     2  LEU2        0.2616
     64 O          38.5480   19.0490  -11.5580 O.2     2  LEU2       -0.2715
     65 CB         40.8170   17.3410  -12.3860 C.3     2  LEU2        0.0311
     66 CG         41.9560   16.3580  -12.6050 C.3     2  LEU2        0.0022
     67 CD1        43.0170   16.9950  -13.4920 C.3     2  LEU2        0.0001
     68 CD2        42.5870   15.9080  -11.2990 C.3     2  LEU2        0.0001
     69 N          37.4130   17.1410  -11.8760 N.am    3  ALA3       -0.1963
     70 CA         36.1630   17.8480  -12.1580 C.3     3  ALA3        0.1728
     71 C          35.5190   18.3660  -10.8720 C.2     3  ALA3        0.2616
     72 O          35.0370   17.5980  -10.0400 O.2     3  ALA3       -0.2715
     73 CB         35.1950   16.9620  -12.9220 C.3     3  ALA3        0.0334
     74 N          35.5380   19.6870  -10.7440 N.am    4  GLU4       -0.1977
     75 CA         34.9210   20.3870   -9.6250 C.3     4  GLU4        0.1600
     76 C          33.4060   20.2150   -9.6870 C.2     4  GLU4        0.2287
     77 O          32.6930   20.3890   -8.7000 O.2     4  GLU4       -0.2864
     78 CB         35.3100   21.8630   -9.6400 C.3     4  GLU4        0.0356
     79 CG         35.0280   22.6060   -8.3440 C.3     4  GLU4        0.0439
     80 CD         36.1210   22.4530   -7.3080 C.2     4  GLU4        0.0504
     81 OE2        35.9890   23.0410   -6.2090 O.co2   4  GLU4       -0.5492
     82 OE1        37.1180   21.7550   -7.5730 O.co2   4  GLU4       -0.5492
     83 N          48.1590   26.4180   -9.3400 N.3     1  ARG1       -0.1245
     84 CA         48.6640   25.0670   -9.1530 C.3     1  ARG1        0.1563
     85 C          50.0660   24.9010   -9.7080 C.2     1  ARG1        0.2260
     86 O          50.2740   25.2680  -10.8640 O.2     1  ARG1       -0.2867
     87 CB         47.7280   24.0830   -9.8630 C.3     1  ARG1        0.0307
     88 CG         46.3070   24.1800   -9.3280 C.3     1  ARG1        0.0489
     89 CD         46.0820   23.0430   -8.3410 C.3     1  ARG1        0.2205
     90 NE         45.1440   23.3850   -7.2770 N.pl3   1  ARG1       -0.0865
     91 CZ         43.9670   22.7540   -7.1780 C.cat   1  ARG1        0.5346
     92 NH1        43.6770   21.8140   -8.0740 N.pl3   1  ARG1        0.1354
     93 NH2        43.1360   23.0840   -6.2010 N.pl3   1  ARG1        0.1354
     94 N          50.2570   18.9690  -16.4060 N.3     1  LEU1       -0.1231
     95 CA         49.2640   19.2140  -15.3670 C.3     1  LEU1        0.1693
     96 C          49.4320   18.1620  -14.2740 C.2     1  LEU1        0.2592
     97 O          49.6440   18.5120  -13.1140 O.2     1  LEU1       -0.2718
     98 CB         47.8420   19.1890  -15.9210 C.3     1  LEU1        0.0284
     99 CG         46.7310   19.6850  -14.9980 C.3     1  LEU1        0.0019
    100 CD2        47.2360   20.8430  -14.1490 C.3     1  LEU1        0.0001
    101 CD1        45.5050   20.1020  -15.7910 C.3     1  LEU1        0.0001
    102 N          49.3460   16.8870  -14.6460 N.am    2  ASN2       -0.1974
    103 CA         49.5180   15.7880  -13.7030 C.3     2  ASN2        0.1688
    104 C          50.9940   15.5460  -13.3940 C.2     2  ASN2        0.2292
    105 O          51.4610   15.8290  -12.2890 O.2     2  ASN2       -0.2864
    106 CB         48.8930   14.4990  -14.2450 C.3     2  ASN2        0.1181
    107 CG         47.4350   14.3880  -13.8230 C.2     2  ASN2        0.2629
    108 OD1        47.0270   15.1200  -12.9190 O.2     2  ASN2       -0.2716
    109 ND2        46.6890   13.4980  -14.4660 N.am    2  ASN2       -0.0877
    110 N          51.9220   18.1050   -7.8070 N.3     1  PRO1       -0.2102
    111 CA         51.1410   17.5160   -6.7100 C.3     1  PRO1        0.1504
    112 C          49.7900   17.0030   -7.1950 C.2     1  PRO1        0.2576
    113 O          49.2800   16.0280   -6.6390 O.2     1  PRO1       -0.2718
    114 CB         50.9630   18.6950   -5.7500 C.3     1  PRO1        0.0282
    115 CG         52.1990   19.5040   -5.9790 C.3     1  PRO1        0.0208
    116 CD         52.3990   19.4550   -7.4750 C.3     1  PRO1        0.0893
    117 N          49.2250   17.6590   -8.2070 N.am    2  THR2       -0.1939
    118 CA         47.8970   17.2460   -8.6770 C.3     2  THR2        0.2028
    119 C          48.0040   15.9240   -9.4240 C.2     2  THR2        0.2643
    120 O          47.0530   15.1480   -9.5160 O.2     2  THR2       -0.2714
    121 CB         47.2240   18.3410   -9.5250 C.3     2  THR2        0.1808
    122 OG1        47.3070   18.0440  -10.9220 O.3     2  THR2       -0.2208
    123 CG2        47.9260   19.6820   -9.3430 C.3     2  THR2        0.0379
    124 N          49.1820   15.6270   -9.9680 N.am    3  GLY3       -0.1939
    125 CA         49.4520   14.3830  -10.6530 C.3     3  GLY3        0.2014
    126 C          49.8260   13.2320   -9.7330 C.2     3  GLY3        0.2640
    127 O          49.9510   12.0970  -10.1950 O.2     3  GLY3       -0.2714
    128 N          50.0010   13.4970   -8.4420 N.am    4  SER4       -0.1935
    129 CA         50.3270   12.4780   -7.4520 C.3     4  SER4        0.2055
    130 C          49.1880   11.4820   -7.2460 C.2     4  SER4        0.2644
    131 O          49.3900   10.3610   -6.7800 O.2     4  SER4       -0.2714
    132 CB         50.6780   13.1380   -6.1150 C.3     4  SER4        0.2130
    133 OG         49.5090   13.4560   -5.3740 O.3     4  SER4       -0.2179
    134 N          47.9810   11.9040   -7.5840 N.am    5  THR5       -0.1936
    135 CA         46.8030   11.0580   -7.4950 C.3     5  THR5        0.2028
    136 C          46.4940   10.3910   -8.8350 C.2     5  THR5        0.2642
    137 O          45.4610    9.7240   -8.9260 O.2     5  THR5       -0.2714
    138 CB         45.5610   11.8420   -7.0240 C.3     5  THR5        0.1808
    139 OG1        45.2480   12.9080   -7.9350 O.3     5  THR5       -0.2208
    140 CG2        45.8480   12.4930   -5.6780 C.3     5  THR5        0.0379
    141 N          47.3710   10.5670   -9.8190 N.am    6  ALA6       -0.1963
    142 CA         47.2300    9.9140  -11.1190 C.3     6  ALA6        0.1728
    143 C          48.2590    8.7950  -11.2750 C.2     6  ALA6        0.2616
    144 O          48.2620    7.8500  -10.4700 O.2     6  ALA6       -0.2715
    145 CB         47.3340   10.9270  -12.2440 C.3     6  ALA6        0.0334
    146 N          49.1400    8.8670  -12.2710 N.am    7  TYR7       -0.1974
    147 CA         50.1180    7.8020  -12.4440 C.3     7  TYR7        0.1639
    148 C          50.9450    7.5040  -11.1880 C.2     7  TYR7        0.2290
    149 O          51.1440    6.3550  -10.8020 O.2     7  TYR7       -0.2864
    150 CB         51.1420    8.1180  -13.5220 C.3     7  TYR7        0.0560
    151 CG         51.7350    6.9230  -14.2160 C.ar    7  TYR7       -0.0198
    152 CD2        52.1050    5.6950  -13.6920 C.ar    7  TYR7       -0.0009
    153 CD1        51.9160    7.1210  -15.5730 C.ar    7  TYR7       -0.0009
    154 CE2        52.6370    4.6960  -14.4720 C.ar    7  TYR7        0.0417
    155 CE1        52.4540    6.1320  -16.3700 C.ar    7  TYR7        0.0417
    156 CZ         52.8060    4.9200  -15.8210 C.ar    7  TYR7        0.1957
    157 OH         53.3480    3.9320  -16.6110 O.3     7  TYR7       -0.2866
    158 N          49.6770   13.8360   -2.5200 N.3     1  LEU1       -0.1245
    159 CA         49.9930   15.2150   -2.1690 C.3     1  LEU1        0.1561
    160 C          48.7540   16.1030   -2.2800 C.2     1  LEU1        0.2260
    161 O          47.9980   15.9480   -3.2410 O.2     1  LEU1       -0.2867
    162 CB         51.0600   15.8350   -3.0610 C.3     1  LEU1        0.0270
    163 CG         52.4760   15.2750   -3.0060 C.3     1  LEU1        0.0019
    164 CD1        53.4070   16.1790   -3.8110 C.3     1  LEU1        0.0001
    165 CD2        53.0010   15.1290   -1.5860 C.3     1  LEU1        0.0001
    166 N          46.6460   18.9390   -3.3900 N.3     1  PRO1       -0.2102
    167 CA         46.6070   19.5090   -4.7310 C.3     1  PRO1        0.1504
    168 C          47.1350   20.9420   -4.7930 C.2     1  PRO1        0.2575
    169 O          47.8120   21.3130   -5.7540 O.2     1  PRO1       -0.2718
    170 CB         45.1160   19.4990   -5.0750 C.3     1  PRO1        0.0282
    171 CG         44.3920   19.2400   -3.7950 C.3     1  PRO1        0.0208
    172 CD         45.3270   18.4520   -2.9280 C.3     1  PRO1        0.0893
    173 N          46.7880   21.6950   -3.7560 N.am    2  ASP2       -0.1976
    174 CA         47.1650   23.0880   -3.6170 C.3     2  ASP2        0.1651
    175 C          48.6310   23.2640   -3.2290 C.2     2  ASP2        0.2291
    176 O          49.1080   24.3740   -3.0010 O.2     2  ASP2       -0.2864
    177 CB         46.2990   23.7290   -2.5230 C.3     2  ASP2        0.0714
    178 CG         46.8580   23.3190   -1.1650 C.2     2  ASP2        0.0525
    179 OD2        47.7610   24.0210   -0.6610 O.co2   2  ASP2       -0.5491
    180 OD1        46.3800   22.2830   -0.6620 O.co2   2  ASP2       -0.5491
    181 N          48.9210   26.5020  -13.8960 N.3     1  VAL1       -0.1231
    182 CA         47.6270   26.4300  -14.5730 C.3     1  VAL1        0.1692
    183 C          46.6370   27.2800  -13.7730 C.2     1  VAL1        0.2592
    184 O          46.9450   27.7570  -12.6770 O.2     1  VAL1       -0.2718
    185 CB         47.0780   25.0070  -14.7440 C.3     1  VAL1        0.0266
    186 CG2        46.1050   24.6290  -13.6360 C.3     1  VAL1        0.0020
    187 CG1        46.3820   24.8530  -16.0930 C.3     1  VAL1        0.0020
    188 N          45.4530   27.4710  -14.3330 N.am    2  LYS2       -0.1966
    189 CA         44.4770   28.3640  -13.7050 C.3     2  LYS2        0.1728
    190 C          43.2440   27.5780  -13.2940 C.2     2  LYS2        0.2616
    191 O          42.6820   26.8470  -14.1140 O.2     2  LYS2       -0.2715
    192 CB         44.1680   29.4920  -14.6850 C.3     2  LYS2        0.0311
    193 CG         44.8650   29.3940  -16.0370 C.3     2  LYS2        0.0038
    194 CD         44.2310   28.3410  -16.9290 C.3     2  LYS2        0.0206
    195 CE         45.1300   27.9440  -18.0860 C.3     2  LYS2        0.1093
    196 NZ         46.4480   27.4190  -17.6430 N.3     2  LYS2       -0.1314
    197 N          42.8240   27.7060  -12.0350 N.am    3  TRP3       -0.1960
    198 CA         41.7640   26.8140  -11.5780 C.3     3  TRP3        0.1768
    199 C          40.4770   27.5180  -11.1670 C.2     3  TRP3        0.2619
    200 O          40.4840   28.4130  -10.3300 O.2     3  TRP3       -0.2715
    201 CB         42.2990   25.9620  -10.4110 C.3     3  TRP3        0.0553
    202 CG         42.4960   24.5350  -10.8380 C.2     3  TRP3       -0.0136
    203 CD1        43.5710   24.0190  -11.4950 C.2     3  TRP3        0.0907
    204 CD2        41.5800   23.4520  -10.6320 C.3     3  TRP3        0.0819
    205 NE1        43.3820   22.6760  -11.7110 N.2     3  TRP3       -0.2482
    206 CE2        42.1680   22.3040  -11.1910 C.2     3  TRP3        0.0665
    207 CE3        40.3240   23.3550  -10.0290 C.2     3  TRP3       -0.0164
    208 CZ2        41.5310   21.0630  -11.1600 C.2     3  TRP3        0.0153
    209 CZ3        39.6990   22.1230  -10.0030 C.2     3  TRP3       -0.0038
    210 CH2        40.3020   20.9930  -10.5640 C.2     3  TRP3        0.0009
    211 N          39.3790   27.0710  -11.7690 N.am    4  ALA4       -0.1963
    212 CA         38.0310   27.5450  -11.4930 C.3     4  ALA4        0.1728
    213 C          37.3520   26.7040  -10.4130 C.2     4  ALA4        0.2616
    214 O          36.7170   25.6920  -10.7110 O.2     4  ALA4       -0.2715
    215 CB         37.1860   27.5490  -12.7600 C.3     4  ALA4        0.0334
    216 N          37.4990   27.1360   -9.1650 N.am    5  ARG5       -0.1977
    217 CA         36.9030   26.4340   -8.0320 C.3     5  ARG5        0.1597
    218 C          35.5360   27.0180   -7.6950 C.2     5  ARG5        0.2287
    219 O          35.4630   28.1680   -7.2550 O.2     5  ARG5       -0.2864
    220 CB         37.8200   26.5070   -6.8130 C.3     5  ARG5        0.0334
    221 CG         38.7000   25.2800   -6.6220 C.3     5  ARG5        0.0492
    222 CD         39.4250   25.3610   -5.2880 C.3     5  ARG5        0.2205
    223 NE         38.7920   24.5250   -4.2750 N.pl3   5  ARG5       -0.0865
    224 CZ         39.3650   23.5050   -3.6510 C.cat   5  ARG5        0.5346
    225 NH1        40.6170   23.1530   -3.9110 N.pl3   5  ARG5        0.1354
    226 NH2        38.6750   22.8210   -2.7470 N.pl3   5  ARG5        0.1354
    227 N          39.6120   19.4410    0.1990 N.3     1  PHE1       -0.1241
    228 CA         40.0650   18.4440   -0.7680 C.3     1  PHE1        0.1605
    229 C          39.7120   17.0380   -0.3040 C.2     1  PHE1        0.2264
    230 O          39.4950   16.1430   -1.1180 O.2     1  PHE1       -0.2867
    231 CB         41.5690   18.5480   -1.0310 C.3     1  PHE1        0.0534
    232 CG         42.1620   17.4390   -1.8910 C.ar    1  PHE1       -0.0203
    233 CD1        41.7910   17.2420   -3.2090 C.ar    1  PHE1       -0.0042
    234 CD2        43.1100   16.5820   -1.3590 C.ar    1  PHE1       -0.0042
    235 CE1        42.3340   16.2350   -3.9790 C.ar    1  PHE1       -0.0003
    236 CE2        43.6660   15.5730   -2.1200 C.ar    1  PHE1       -0.0003
    237 CZ         43.2830   15.3940   -3.4350 C.ar    1  PHE1       -0.0000
    238 N          36.8100   15.5950   -2.1600 N.3     1  ARG1       -0.1245
    239 CA         37.0570   15.0320   -3.4890 C.3     1  ARG1        0.1563
    240 C          37.7290   13.6670   -3.3400 C.2     1  ARG1        0.2260
    241 O          37.1970   12.6320   -3.7420 O.2     1  ARG1       -0.2867
    242 CB         37.9180   15.9590   -4.3410 C.3     1  ARG1        0.0307
    243 CG         37.2900   16.3850   -5.6580 C.3     1  ARG1        0.0489
    244 CD         38.3220   16.8920   -6.6490 C.3     1  ARG1        0.2205
    245 NE         38.9140   18.1690   -6.2610 N.pl3   1  ARG1       -0.0865
    246 CZ         39.7850   18.8390   -7.0030 C.cat   1  ARG1        0.5346
    247 NH1        40.1720   18.3590   -8.1770 N.pl3   1  ARG1        0.1354
    248 NH2        40.2770   19.9950   -6.5740 N.pl3   1  ARG1        0.1354
@<TRIPOS>UNITY_ATOM_ATTR
7 1
charge -1
81 1
charge -1
179 1
charge -1
@<TRIPOS>BOND
     1     1     2    1
     2     2     3    1
     3     2     5    1
     4     3     9   am
     5     3     4    2
     6     5     6    1
     7     6     8   ar
     8     6     7   ar
     9     9    10    1
    10    10    11    1
    11    11    12    2
    12    13    14    1
    13    14    15    1
    14    14    17    1
    15    15    16    2
    16    15    24   am
    17    17    18    1
    18    18    20   ar
    19    18    19   ar
    20    19    21   ar
    21    20    22   ar
    22    21    23   ar
    23    22    23   ar
    24    24    25    1
    25    25    26    1
    26    25    28    1
    27    26    27    2
    28    28    29    1
    29    29    30    1
    30    29    31    1
    31    32    33    1
    32    33    36    1
    33    33    34    1
    34    34    35    2
    35    36    38    1
    36    36    37    1
    37    39    40    1
    38    40    43    1
    39    40    41    1
    40    41    42    2
    41    43    44    1
    42    44    45    1
    43    45    46    1
    44    46    47    2
    45    47    49    1
    46    47    48    1
    47    50    51    1
    48    51    52    1
    49    51    54    1
    50    52    61   am
    51    52    53    2
    52    54    55    1
    53    55    57   ar
    54    55    56   ar
    55    56    58   ar
    56    57    59   ar
    57    58    60   ar
    58    59    60   ar
    59    61    62    1
    60    62    65    1
    61    62    63    1
    62    63    69   am
    63    63    64    2
    64    65    66    1
    65    66    67    1
    66    66    68    1
    67    69    70    1
    68    70    73    1
    69    70    71    1
    70    71    74   am
    71    71    72    2
    72    74    75    1
    73    75    76    1
    74    75    78    1
    75    76    77    2
    76    78    79    1
    77    79    80    1
    78    80    82   ar
    79    80    81   ar
    80    83    84    1
    81    84    87    1
    82    84    85    1
    83    85    86    2
    84    87    88    1
    85    88    89    1
    86    89    90    1
    87    90    91    2
    88    91    92    1
    89    91    93    1
    90    94    95    1
    91    95    98    1
    92    95    96    1
    93    96   102   am
    94    96    97    2
    95    98    99    1
    96    99   101    1
    97    99   100    1
    98   102   103    1
    99   103   106    1
   100   103   104    1
   101   104   105    2
   102   106   107    1
   103   107   109   am
   104   107   108    2
   105   110   116    1
   106   110   111    1
   107   111   112    1
   108   111   114    1
   109   112   117   am
   110   112   113    2
   111   114   115    1
   112   115   116    1
   113   117   118    1
   114   118   121    1
   115   118   119    1
   116   119   124   am
   117   119   120    2
   118   121   122    1
   119   121   123    1
   120   124   125    1
   121   125   126    1
   122   126   127    2
   123   126   128   am
   124   128   129    1
   125   129   130    1
   126   129   132    1
   127   130   134   am
   128   130   131    2
   129   132   133    1
   130   134   135    1
   131   135   136    1
   132   135   138    1
   133   136   141   am
   134   136   137    2
   135   138   139    1
   136   138   140    1
   137   141   142    1
   138   142   145    1
   139   142   143    1
   140   143   146   am
   141   143   144    2
   142   146   147    1
   143   147   150    1
   144   147   148    1
   145   148   149    2
   146   150   151    1
   147   151   153   ar
   148   151   152   ar
   149   152   154   ar
   150   153   155   ar
   151   154   156   ar
   152   155   156   ar
   153   156   157    1
   154   158   159    1
   155   159   162    1
   156   159   160    1
   157   160   161    2
   158   162   163    1
   159   163   164    1
   160   163   165    1
   161   166   167    1
   162   166   172    1
   163   167   170    1
   164   167   168    1
   165   168   169    2
   166   168   173   am
   167   170   171    1
   168   171   172    1
   169   173   174    1
   170   174   175    1
   171   174   177    1
   172   175   176    2
   173   177   178    1
   174   178   180   ar
   175   178   179   ar
   176   181   182    1
   177   182   185    1
   178   182   183    1
   179   183   188   am
   180   183   184    2
   181   185   187    1
   182   185   186    1
   183   188   189    1
   184   189   192    1
   185   189   190    1
   186   190   191    2
   187   190   197   am
   188   192   193    1
   189   193   194    1
   190   194   195    1
   191   195   196    1
   192   197   198    1
   193   198   199    1
   194   198   201    1
   195   199   211   am
   196   199   200    2
   197   201   202    1
   198   202   203    2
   199   202   204    1
   200   203   205    1
   201   204   206    1
   202   204   207    1
   203   205   206    2
   204   206   208    1
   205   207   209    2
   206   208   210    2
   207   209   210    1
   208   211   212    1
   209   212   215    1
   210   212   213    1
   211   213   214    2
   212   213   216   am
   213   216   217    1
   214   217   218    1
   215   217   220    1
   216   218   219    2
   217   220   221    1
   218   221   222    1
   219   222   223    1
   220   223   224    2
   221   224   225    1
   222   224   226    1
   223   227   228    1
   224   228   231    1
   225   228   229    1
   226   229   230    2
   227   231   232    1
   228   232   233   ar
   229   232   234   ar
   230   233   235   ar
   231   234   236   ar
   232   235   237   ar
   233   236   237   ar
   234   238   239    1
   235   239   242    1
   236   239   240    1
   237   240   241    2
   238   242   243    1
   239   243   244    1
   240   244   245    1
   241   245   246    2
   242   246   247    1
   243   246   248    1
