@<TRIPOS>MOLECULE
./1ivd/ligand.pdb
 19 19 0 0 0
SMALL
GASTEIGER

@<TRIPOS>ATOM
      1  CM4       45.6550   17.7960  -23.4490 C.3     1  ST11        0.0949
      2  ON1       45.2750   22.9490  -24.6670 O.2     1  ST11       -0.1261
      3  ON2       47.3170   22.2080  -25.2560 O.2     1  ST11       -0.1261
      4  C4'       45.7830   19.1450  -24.1360 C.2     1  ST11        0.2267
      5  O4'       46.4270   19.2210  -25.1850 O.2     1  ST11       -0.2748
      6  O2'       48.7680   22.8780  -19.1660 O.co2   1  ST11       -0.5446
      7  O1'       49.3150   24.1360  -20.8860 O.co2   1  ST11       -0.5446
      8  C1        47.8290   22.4080  -21.1900 C.ar    1  ST11        0.0187
      9  C2        47.2560   21.2230  -20.7190 C.ar    1  ST11        0.0391
     10  C3        46.3710   20.4830  -21.5030 C.ar    1  ST11        0.1487
     11  O3        45.7380   19.3780  -20.9710 O.3     1  ST11       -0.5042
     12  C4        46.0570   20.9200  -22.7960 C.ar    1  ST11        0.1071
     13  N4        45.1780   20.2130  -23.6090 N.am    1  ST11       -0.2802
     14  C5        46.6230   22.0860  -23.2740 C.ar    1  ST11        0.1592
     15  N5        46.3780   22.4620  -24.5540 N.pl3   1  ST11        0.0590
     16  C6        47.5050   22.8310  -22.4770 C.ar    1  ST11        0.0267
     17  C'        48.6830   23.1710  -20.3780 C.2     1  ST11        0.0730
     18  HN4       44.2670   20.4870  -23.8190 H       1  ST11        0.1550
     19  HO3       45.0420   19.0810  -21.5570 H       1  ST11        0.2922
@<TRIPOS>UNITY_ATOM_ATTR
6 1
charge -1
@<TRIPOS>BOND
     1     1     4    1
     2     2    15    2
     3     3    15    2
     4     4     5    2
     5     4    13   am
     6     6    17   ar
     7     7    17   ar
     8     8     9   ar
     9     8    16   ar
    10     8    17    1
    11     9    10   ar
    12    10    11    1
    13    10    12   ar
    14    11    19    1
    15    12    13    1
    16    12    14   ar
    17    13    18    1
    18    14    15    1
    19    14    16   ar
