@<TRIPOS>MOLECULE
./966c/protein.pdb
 220 217 0 0 0
SMALL
GASTEIGER

@<TRIPOS>ATOM
      1 N          -5.4290    4.6630   27.4030 N.3     1  ALA1       -0.2380
      2 CA         -5.5030    5.5480   28.5570 C.3     1  ALA1        0.1448
      3 C          -5.1030    4.7960   29.8100 C.2     1  ALA1        0.2383
      4 O          -4.3010    5.2580   30.5430 O.2     1  ALA1       -0.2736
      5 CB         -6.9050    6.1860   28.6920 C.3     1  ALA1        0.0283
      6 H          -6.1950    4.3870   26.8780 H       1  ALA1        0.1418
      7 N          -5.6490    3.6010   30.0100 N.am    2  ASP2       -0.2969
      8 CA         -5.3120    2.8080   31.1830 C.3     2  ASP2        0.1542
      9 C          -3.8130    2.4960   31.1310 C.2     2  ASP2        0.2410
     10 O          -3.1420    2.4080   32.1980 O.2     2  ASP2       -0.2733
     11 CB         -6.1220    1.5050   31.2300 C.3     2  ASP2        0.0706
     12 CG         -7.6230    1.7250   31.5220 C.2     2  ASP2        0.0525
     13 OD2        -7.9790    2.3120   32.5740 O.co2   2  ASP2       -0.5491
     14 OD1        -8.4510    1.2720   30.7070 O.co2   2  ASP2       -0.5491
     15 H          -6.3300    3.2590   29.4040 H       2  ASP2        0.1499
     16 N          -3.2830    2.3490   29.9180 N.am    3  VAL3       -0.2980
     17 CA         -1.8510    2.0710   29.7320 C.3     3  VAL3        0.1368
     18 C          -1.0660    3.2580   30.2990 C.2     3  VAL3        0.2266
     19 O          -0.1490    3.0620   31.0840 O.2     3  VAL3       -0.2865
     20 CB         -1.4960    1.8100   28.2460 C.3     3  VAL3        0.0256
     21 CG2         0.0440    1.6350   28.0580 C.3     3  VAL3        0.0022
     22 CG1        -2.2400    0.5850   27.7530 C.3     3  VAL3        0.0022
     23 H          -3.8700    2.4240   29.1380 H       3  VAL3        0.1498
     24 N          -2.1620    5.3410   32.4500 N.3     1  HIS1       -0.2377
     25 CA         -2.4590    5.3800   33.8590 C.3     1  HIS1        0.1505
     26 C          -1.5060    4.4820   34.6250 C.2     1  HIS1        0.2387
     27 O          -0.8700    4.9380   35.6000 O.2     1  HIS1       -0.2736
     28 CB         -3.8980    4.9470   34.1120 C.3     1  HIS1        0.0685
     29 CG         -4.4840    5.4730   35.3860 C.2     1  HIS1        0.0392
     30 ND1        -3.7930    5.4630   36.5700 N.pl3   1  HIS1       -0.3185
     31 CD2        -5.6690    6.0580   35.6530 C.2     1  HIS1        0.0692
     32 CE1        -4.5240    6.0140   37.5170 C.3     1  HIS1        0.1815
     33 NE2        -5.6690    6.3840   36.9850 N.pl3   1  HIS1       -0.3146
     34 H          -2.8260    5.0530   31.7770 H       1  HIS1        0.1418
     35 HD1        -2.8640    5.1540   36.7030 H       1  HIS1        0.1481
     36 HE2        -6.3890    6.8020   37.5150 H       1  HIS1        0.1484
     37 N          -1.3850    3.2370   34.1790 N.am    2  ALA2       -0.2972
     38 CA         -0.5250    2.2570   34.8370 C.3     2  ALA2        0.1486
     39 C           0.9390    2.7050   34.8450 C.2     2  ALA2        0.2406
     40 O           1.6920    2.4200   35.8550 O.2     2  ALA2       -0.2733
     41 CB         -0.6650    0.8580   34.1690 C.3     2  ALA2        0.0312
     42 H          -1.8860    2.9740   33.3760 H       2  ALA2        0.1499
     43 N           1.3410    3.4190   33.8090 N.am    3  ILE3       -0.2980
     44 CA          2.7250    3.9330   33.7030 C.3     3  ILE3        0.1368
     45 C           3.0100    5.1060   34.6520 C.2     3  ILE3        0.2266
     46 O           3.9510    5.0790   35.4250 O.2     3  ILE3       -0.2865
     47 CB          3.0590    4.5040   32.3020 C.3     3  ILE3        0.0256
     48 CG1         2.6790    3.5290   31.1820 C.3     3  ILE3        0.0021
     49 CG2         4.5460    4.8520   32.2510 C.3     3  ILE3        0.0022
     50 CD1         3.4640    2.2560   31.1290 C.3     3  ILE3        0.0001
     51 H           0.7140    3.5730   33.0640 H       3  ILE3        0.1498
     52 N           1.2960    6.0930   37.0420 N.3     1  LYS1       -0.2391
     53 CA          1.0530    5.5860   38.3960 C.3     1  LYS1        0.1330
     54 C           2.3020    4.8260   38.8890 C.2     1  LYS1        0.2241
     55 O           2.5830    4.7720   40.1030 O.2     1  LYS1       -0.2868
     56 CB         -0.1850    4.6690   38.3800 C.3     1  LYS1        0.0253
     57 CG         -0.6720    4.1690   39.7270 C.3     1  LYS1        0.0080
     58 CD         -0.9250    5.3310   40.6230 C.3     1  LYS1        0.0608
     59 CE         -1.8570    4.9640   41.7630 C.3     1  LYS1        0.0993
     60 NZ         -1.8110    6.0490   42.7890 N.4     1  LYS1        0.2323
     61 H           0.7260    5.7970   36.3070 H       1  LYS1        0.1418
     62 HZ1        -2.0470    6.9540   42.3340 H       1  LYS1        0.2005
     63 HZ2        -2.5350    5.8370   43.5040 H       1  LYS1        0.2005
     64 HZ3        -0.8830    6.1200   43.2490 H       1  LYS1        0.2005
     65 N           4.9330    7.4540   39.6890 N.3     1  GLN1       -0.2380
     66 CA          4.5910    8.1560   40.9570 C.3     1  GLN1        0.1452
     67 C           5.1890    7.5470   42.2170 C.2     1  GLN1        0.2383
     68 O           5.7010    8.2960   43.0610 O.2     1  GLN1       -0.2736
     69 CB          3.0590    8.3270   41.1770 C.3     1  GLN1        0.0359
     70 CG          2.1880    7.0210   41.3700 C.3     1  GLN1        0.0867
     71 CD          2.0900    6.4510   42.8120 C.2     1  GLN1        0.2194
     72 OE1         2.9230    6.7330   43.6720 O.2     1  GLN1       -0.2753
     73 NE2         1.0490    5.6320   43.0620 N.am    1  GLN1       -0.3288
     74 H           4.2260    7.1250   39.1060 H       1  GLN1        0.1418
     75 HE21        0.9990    5.3380   44.0110 H       1  GLN1        0.1449
     76 HE22        0.4740    5.3690   42.3610 H       1  GLN1        0.1449
     77 N           5.1490    6.2280   42.3380 N.am    2  LEU2       -0.2982
     78 CA          5.6760    5.5540   43.5370 C.3     2  LEU2        0.1368
     79 C           7.0330    6.1160   43.8920 C.2     2  LEU2        0.2266
     80 O           7.2050    6.6910   44.9660 O.2     2  LEU2       -0.2865
     81 CB          5.8340    4.0440   43.3200 C.3     2  LEU2        0.0276
     82 CG          4.6730    3.1100   42.9760 C.3     2  LEU2        0.0021
     83 CD2         3.3590    3.6630   43.4830 C.3     2  LEU2        0.0001
     84 CD1         4.6480    2.8130   41.4800 C.3     2  LEU2        0.0001
     85 H           4.8160    5.6870   41.5910 H       2  LEU2        0.1498
     86 N          -3.0680   -6.4280   31.9790 N.3     1  THR1       -0.2360
     87 CA         -4.3660   -6.0270   32.5290 C.3     1  THR1        0.1718
     88 C          -4.3640   -4.7510   33.4020 C.2     1  THR1        0.2408
     89 O          -3.3320   -4.2950   33.8420 O.2     1  THR1       -0.2735
     90 CB         -4.9670   -7.2110   33.3900 C.3     1  THR1        0.1350
     91 OG1        -4.2900   -7.2670   34.6660 O.3     1  THR1       -0.3825
     92 CG2        -4.7730   -8.5650   32.6670 C.3     1  THR1        0.0337
     93 H          -2.2870   -6.5090   32.5810 H       1  THR1        0.1419
     94 HG1        -3.9850   -8.1680   34.8510 H       1  THR1        0.2104
     95 N          -5.5590   -4.2420   33.6830 N.am    2  ASN2       -0.2968
     96 CA         -5.7380   -3.0860   34.5630 C.3     2  ASN2        0.1577
     97 C          -6.5240   -3.5860   35.7880 C.2     2  ASN2        0.2412
     98 O          -7.2240   -2.7940   36.4750 O.2     2  ASN2       -0.2733
     99 CB         -6.5400   -1.9910   33.8370 C.3     2  ASN2        0.1137
    100 CG         -8.0180   -2.3690   33.6370 C.2     2  ASN2        0.2216
    101 OD1        -8.3900   -3.5280   33.8190 O.2     2  ASN2       -0.2753
    102 ND2        -8.8530   -1.3920   33.2620 N.am    2  ASN2       -0.3287
    103 H          -6.3650   -4.6660   33.3030 H       2  ASN2        0.1499
    104 HD21       -9.7990   -1.6110   33.1690 H       2  ASN2        0.1449
    105 HD22       -8.5030   -0.4790   33.0760 H       2  ASN2        0.1449
    106 N          -6.4120   -4.8920   36.0990 N.am    3  ASN3       -0.2966
    107 CA         -7.1430   -5.4580   37.2420 C.3     3  ASN3        0.1577
    108 C          -6.4410   -6.6640   37.9130 C.2     3  ASN3        0.2411
    109 O          -5.2730   -6.9440   37.6460 O.2     3  ASN3       -0.2733
    110 CB         -8.5320   -5.8680   36.7940 C.3     3  ASN3        0.1137
    111 CG         -8.4650   -6.8780   35.6990 C.2     3  ASN3        0.2216
    112 OD1        -8.3320   -8.0480   35.9560 O.2     3  ASN3       -0.2753
    113 ND2        -8.4360   -6.4150   34.4570 N.am    3  ASN3       -0.3287
    114 H          -5.7620   -5.4800   35.6370 H       3  ASN3        0.1499
    115 HD21       -8.3590   -7.0050   33.6900 H       3  ASN3        0.1449
    116 HD22       -8.4540   -5.4240   34.3800 H       3  ASN3        0.1449
    117 N          -7.1880   -7.3780   38.7810 N.am    4  PHE4       -0.2977
    118 CA         -6.7170   -8.5640   39.5200 C.3     4  PHE4        0.1412
    119 C          -6.2970   -9.7600   38.6660 C.2     4  PHE4        0.2270
    120 O          -5.6230  -10.6620   39.1420 O.2     4  PHE4       -0.2865
    121 CB         -7.7930   -9.0480   40.5400 C.3     4  PHE4        0.0540
    122 CG         -8.9270   -9.8550   39.9240 C.ar    4  PHE4       -0.0201
    123 CD2        -8.8080  -11.2400   39.7480 C.ar    4  PHE4       -0.0042
    124 CD1       -10.1180   -9.2330   39.5120 C.ar    4  PHE4       -0.0042
    125 CE2        -9.8460  -12.0000   39.1750 C.ar    4  PHE4       -0.0003
    126 CE1       -11.1720  -10.0050   38.9310 C.ar    4  PHE4       -0.0003
    127 CZ        -11.0310  -11.3760   38.7650 C.ar    4  PHE4       -0.0000
    128 H          -8.1140   -7.0900   38.9510 H       4  PHE4        0.1498
    129 N          -0.8830   -7.7270   35.8890 N.3     1  ASN1       -0.2376
    130 CA         -1.3850   -6.4090   36.0880 C.3     1  ASN1        0.1539
    131 C          -0.2080   -5.5310   35.7030 C.2     1  ASN1        0.2388
    132 O           0.8610   -5.5740   36.3470 O.2     1  ASN1       -0.2736
    133 CB         -1.7440   -6.1890   37.5420 C.3     1  ASN1        0.1111
    134 CG         -2.2350   -4.8060   37.7980 C.2     1  ASN1        0.2213
    135 OD1        -1.4620   -3.9280   38.1540 O.2     1  ASN1       -0.2753
    136 ND2        -3.5210   -4.5830   37.5600 N.am    1  ASN1       -0.3287
    137 H          -0.5050   -8.2060   36.6500 H       1  ASN1        0.1418
    138 HD21       -3.8850   -3.6710   37.6590 H       1  ASN1        0.1449
    139 HD22       -4.0720   -5.3520   37.2510 H       1  ASN1        0.1449
    140 N          -0.4210   -4.7360   34.6650 N.am    2  LEU2       -0.2972
    141 CA          0.6050   -3.8450   34.1270 C.3     2  LEU2        0.1486
    142 C           1.2340   -2.9500   35.1460 C.2     2  LEU2        0.2406
    143 O           2.4260   -2.9440   35.3150 O.2     2  LEU2       -0.2733
    144 CB          0.0370   -2.9810   33.0090 C.3     2  LEU2        0.0290
    145 CG          1.0850   -2.2350   32.1830 C.3     2  LEU2        0.0021
    146 CD2         2.0590   -3.2380   31.5370 C.3     2  LEU2        0.0001
    147 CD1         0.3490   -1.3450   31.1380 C.3     2  LEU2        0.0001
    148 H          -1.3110   -4.7570   34.2520 H       2  LEU2        0.1499
    149 N           0.3890   -2.2330   35.8800 N.am    3  HIS3       -0.2967
    150 CA          0.8830   -1.3120   36.8670 C.3     3  HIS3        0.1543
    151 C           1.9620   -1.9400   37.7500 C.2     3  HIS3        0.2410
    152 O           3.1020   -1.3530   37.9190 O.2     3  HIS3       -0.2733
    153 CB         -0.2680   -0.7900   37.7540 C.3     3  HIS3        0.0711
    154 CG          0.1970    0.1460   38.8300 C.2     3  HIS3        0.0395
    155 ND1         1.0550    1.2000   38.5830 N.pl3   3  HIS3       -0.3185
    156 CD2        -0.0400    0.1650   40.1600 C.2     3  HIS3        0.0692
    157 CE1         1.3210    1.8220   39.7120 C.3     3  HIS3        0.1815
    158 NE2         0.6670    1.2150   40.6820 N.pl3   3  HIS3       -0.3146
    159 H          -0.5720   -2.3500   35.7370 H       3  HIS3        0.1499
    160 HD1         1.4270    1.4580   37.7000 H       3  HIS3        0.1481
    161 HE2         0.6810    1.5190   41.6290 H       3  HIS3        0.1484
    162 N           1.5900   -3.0480   38.3940 N.am    4  ARG4       -0.2980
    163 CA          2.4790   -3.7690   39.2920 C.3     4  ARG4        0.1370
    164 C           3.8530   -4.1150   38.7000 C.2     4  ARG4        0.2266
    165 O           4.8940   -3.6930   39.2380 O.2     4  ARG4       -0.2865
    166 CB          1.7370   -4.9630   39.9150 C.3     4  ARG4        0.0312
    167 CG          0.8740   -4.5130   41.1210 C.3     4  ARG4        0.0450
    168 CD         -0.5210   -5.1600   41.1600 C.3     4  ARG4        0.1739
    169 NE         -1.3540   -4.6140   42.2250 N.pl3   4  ARG4       -0.2651
    170 CZ         -2.2490   -3.6360   42.0660 C.cat   4  ARG4        0.3417
    171 NH1        -2.4670   -3.1180   40.8610 N.pl3   4  ARG4       -0.2918
    172 NH2        -2.7460   -3.0030   43.1420 N.pl3   4  ARG4       -0.2918
    173 H           0.6890   -3.4100   38.2430 H       4  ARG4        0.1498
    174 HE         -1.2460   -4.9960   43.1250 H       4  ARG4        0.2586
    175 HH11       -1.9870   -3.4480   40.0440 H       4  ARG4        0.2545
    176 HH12       -3.1150   -2.3710   40.7290 H       4  ARG4        0.2545
    177 HH21       -2.4430   -3.2850   44.0600 H       4  ARG4        0.2545
    178 HH22       -3.4120   -2.2630   43.1410 H       4  ARG4        0.2545
    179 N           0.0980  -10.2380   43.0190 N.3     1  PHE1       -0.2378
    180 CA         -0.8300   -9.1300   42.9710 C.3     1  PHE1        0.1491
    181 C          -1.3870   -8.7670   44.3740 C.2     1  PHE1        0.2387
    182 O          -1.8810   -9.6580   45.1150 O.2     1  PHE1       -0.2736
    183 CB         -1.9710   -9.4650   42.0050 C.3     1  PHE1        0.0527
    184 CG         -3.0410   -8.4510   41.9820 C.ar    1  PHE1       -0.0203
    185 CD1        -2.9420   -7.3360   41.1570 C.ar    1  PHE1       -0.0042
    186 CD2        -4.1700   -8.5820   42.8130 C.ar    1  PHE1       -0.0042
    187 CE1        -3.9500   -6.3620   41.1590 C.ar    1  PHE1       -0.0003
    188 CE2        -5.1740   -7.6010   42.8140 C.ar    1  PHE1       -0.0003
    189 CZ         -5.0610   -6.4900   41.9840 C.ar    1  PHE1       -0.0000
    190 H          -0.2460  -11.1440   43.1830 H       1  PHE1        0.1418
    191 N          -1.3580   -7.4650   44.6900 N.am    2  SER2       -0.2952
    192 CA         -1.8210   -6.8690   45.9460 C.3     2  SER2        0.1782
    193 C          -2.7640   -5.7250   45.6270 C.2     2  SER2        0.2432
    194 O          -2.3710   -4.7790   44.9450 O.2     2  SER2       -0.2732
    195 CB         -0.6450   -6.2140   46.7080 C.3     2  SER2        0.1660
    196 OG         -0.0690   -6.9960   47.7410 O.3     2  SER2       -0.3798
    197 H          -1.0030   -6.8390   44.0290 H       2  SER2        0.1499
    198 H           0.4030   -7.7230   47.3200 H       2  SER2        0.2105
    199 N          -3.9740   -5.7760   46.1720 N.am    3  GLY3       -0.2952
    200 CA         -4.9420   -4.7020   45.9890 C.3     3  GLY3        0.1757
    201 C          -4.2980   -3.3280   46.1810 C.2     3  GLY3        0.2428
    202 O          -4.4920   -2.4480   45.3530 O.2     3  GLY3       -0.2732
    203 H          -4.2310   -6.5790   46.6750 H       3  GLY3        0.1499
    204 N          -3.6010   -3.1260   47.2970 N.am    4  ASP4       -0.2966
    205 CA         -2.8770   -1.8630   47.5140 C.3     4  ASP4        0.1542
    206 C          -1.4910   -2.1820   47.0210 C.2     4  ASP4        0.2410
    207 O          -1.0250   -3.3370   47.1270 O.2     4  ASP4       -0.2733
    208 CB         -2.7540   -1.4670   49.0030 C.3     4  ASP4        0.0706
    209 CG         -1.6340   -0.4080   49.2650 C.2     4  ASP4        0.0525
    210 OD2        -0.4460   -0.7670   49.3960 O.co2   4  ASP4       -0.5491
    211 OD1        -1.9300    0.7970   49.3870 O.co2   4  ASP4       -0.5491
    212 H          -3.5220   -3.8240   47.9690 H       4  ASP4        0.1499
    213 N          -0.8420   -1.1960   46.4510 N.am    5  VAL5       -0.2980
    214 CA          0.5090   -1.4110   46.0210 C.3     5  VAL5        0.1368
    215 C           1.3090   -0.1530   46.3140 C.2     5  VAL5        0.2266
    216 O           1.1920    0.8690   45.6300 O.2     5  VAL5       -0.2865
    217 CB          0.6510   -1.9230   44.5590 C.3     5  VAL5        0.0256
    218 CG2         0.4190   -3.4510   44.4990 C.3     5  VAL5        0.0022
    219 CG1        -0.2920   -1.1850   43.6210 C.3     5  VAL5        0.0022
    220 H          -1.2840   -0.3100   46.4200 H       5  VAL5        0.1498
@<TRIPOS>UNITY_ATOM_ATTR
13 1
charge -1
60 1
charge 1
210 1
charge -1
@<TRIPOS>BOND
     1     1     6    1
     2     1     2    1
     3     2     5    1
     4     2     3    1
     5     3     7   am
     6     3     4    2
     7     7    15    1
     8     7     8    1
     9     8     9    1
    10     8    11    1
    11     9    16   am
    12     9    10    2
    13    11    12    1
    14    12    14   ar
    15    12    13   ar
    16    16    23    1
    17    16    17    1
    18    17    20    1
    19    17    18    1
    20    18    19    2
    21    20    22    1
    22    20    21    1
    23    24    34    1
    24    24    25    1
    25    25    28    1
    26    25    26    1
    27    26    37   am
    28    26    27    2
    29    28    29    1
    30    29    31    2
    31    29    30    1
    32    30    35    1
    33    30    32    1
    34    31    33    1
    35    32    33    1
    36    33    36    1
    37    37    42    1
    38    37    38    1
    39    38    41    1
    40    38    39    1
    41    39    43   am
    42    39    40    2
    43    43    51    1
    44    43    44    1
    45    44    47    1
    46    44    45    1
    47    45    46    2
    48    47    48    1
    49    47    49    1
    50    48    50    1
    51    52    61    1
    52    52    53    1
    53    53    56    1
    54    53    54    1
    55    54    55    2
    56    56    57    1
    57    57    58    1
    58    58    59    1
    59    59    60    1
    60    60    62    1
    61    60    64    1
    62    60    63    1
    63    65    74    1
    64    65    66    1
    65    66    69    1
    66    66    67    1
    67    67    77   am
    68    67    68    2
    69    69    70    1
    70    70    71    1
    71    71    73   am
    72    71    72    2
    73    73    76    1
    74    73    75    1
    75    77    85    1
    76    77    78    1
    77    78    81    1
    78    78    79    1
    79    79    80    2
    80    81    82    1
    81    82    84    1
    82    82    83    1
    83    86    87    1
    84    86    93    1
    85    87    90    1
    86    87    88    1
    87    88    95   am
    88    88    89    2
    89    90    92    1
    90    90    91    1
    91    91    94    1
    92    95   103    1
    93    95    96    1
    94    96    99    1
    95    96    97    1
    96    97   106   am
    97    97    98    2
    98    99   100    1
    99   100   102   am
   100   100   101    2
   101   102   105    1
   102   102   104    1
   103   106   114    1
   104   106   107    1
   105   107   110    1
   106   107   108    1
   107   108   109    2
   108   108   117   am
   109   110   111    1
   110   111   113   am
   111   111   112    2
   112   113   115    1
   113   113   116    1
   114   117   128    1
   115   117   118    1
   116   118   119    1
   117   118   121    1
   118   119   120    2
   119   121   122    1
   120   122   124   ar
   121   122   123   ar
   122   123   125   ar
   123   124   126   ar
   124   125   127   ar
   125   126   127   ar
   126   129   130    1
   127   129   137    1
   128   130   131    1
   129   130   133    1
   130   131   140   am
   131   131   132    2
   132   133   134    1
   133   134   136   am
   134   134   135    2
   135   136   139    1
   136   136   138    1
   137   140   141    1
   138   140   148    1
   139   141   144    1
   140   141   142    1
   141   142   143    2
   142   142   149   am
   143   144   145    1
   144   145   147    1
   145   145   146    1
   146   149   159    1
   147   149   150    1
   148   150   151    1
   149   150   153    1
   150   151   152    2
   151   151   162   am
   152   153   154    1
   153   154   155    1
   154   154   156    2
   155   155   160    1
   156   155   157    1
   157   156   158    1
   158   157   158    1
   159   158   161    1
   160   162   173    1
   161   162   163    1
   162   163   164    1
   163   163   166    1
   164   164   165    2
   165   166   167    1
   166   167   168    1
   167   168   169    1
   168   169   170    1
   169   169   174    1
   170   170   171    2
   171   170   172    1
   172   171   175    1
   173   171   176    1
   174   172   178    1
   175   172   177    1
   176   179   180    1
   177   179   190    1
   178   180   183    1
   179   180   181    1
   180   181   191   am
   181   181   182    2
   182   183   184    1
   183   184   185   ar
   184   184   186   ar
   185   185   187   ar
   186   186   188   ar
   187   187   189   ar
   188   188   189   ar
   189   191   197    1
   190   191   192    1
   191   192   193    1
   192   192   195    1
   193   193   194    2
   194   193   199   am
   195   195   196    1
   196   196   198    1
   197   199   200    1
   198   199   203    1
   199   200   201    1
   200   201   202    2
   201   201   204   am
   202   204   205    1
   203   204   212    1
   204   205   206    1
   205   205   208    1
   206   206   213   am
   207   206   207    2
   208   208   209    1
   209   209   211   ar
   210   209   210   ar
   211   213   214    1
   212   213   220    1
   213   214   217    1
   214   214   215    1
   215   215   216    2
   216   217   219    1
   217   217   218    1
