@<TRIPOS>MOLECULE
./1wq1/protein.pdb
 160 154 0 0 0
SMALL
GASTEIGER

@<TRIPOS>ATOM
      1 N         -28.8510   27.5100   20.5170 N.3     1  ALA1       -0.1231
      2 CA        -29.2710   26.5870   19.4670 C.3     1  ALA1        0.1694
      3 C         -28.1310   25.8160   18.7960 C.2     1  ALA1        0.2593
      4 O         -28.2830   24.6210   18.5010 O.2     1  ALA1       -0.2718
      5 CB        -30.0830   27.3370   18.4260 C.3     1  ALA1        0.0304
      6 N         -26.9720   26.4520   18.6330 N.am    2  THR2       -0.1939
      7 CA        -25.8510   25.8310   17.9230 C.3     2  THR2        0.2028
      8 C         -25.1970   24.6960   18.7090 C.2     2  THR2        0.2643
      9 O         -24.1320   24.2140   18.3360 O.2     2  THR2       -0.2714
     10 CB        -24.7690   26.8650   17.5760 C.3     2  THR2        0.1808
     11 OG1       -24.4130   27.5900   18.7570 O.3     2  THR2       -0.2208
     12 CG2       -25.2820   27.8430   16.5240 C.3     2  THR2        0.0379
     13 N         -25.8180   24.3040   19.8170 N.am    3  THR3       -0.1936
     14 CA        -25.3010   23.2280   20.6540 C.3     3  THR3        0.2028
     15 C         -26.3040   22.0840   20.7760 C.2     3  THR3        0.2642
     16 O         -26.0440   21.0750   21.4470 O.2     3  THR3       -0.2714
     17 CB        -24.9780   23.7300   22.0870 C.3     3  THR3        0.1808
     18 OG1       -26.1220   24.4060   22.6220 O.3     3  THR3       -0.2208
     19 CG2       -23.7740   24.6790   22.0900 C.3     3  THR3        0.0379
     20 N         -27.4610   22.2480   20.1510 N.am    4  LEU4       -0.1963
     21 CA        -28.5550   21.3040   20.3450 C.3     4  LEU4        0.1728
     22 C         -28.1830   19.8630   19.9870 C.2     4  LEU4        0.2616
     23 O         -27.6640   19.5900   18.9020 O.2     4  LEU4       -0.2715
     24 CB        -29.7910   21.7440   19.5520 C.3     4  LEU4        0.0311
     25 CG        -31.0490   20.8930   19.7770 C.3     4  LEU4        0.0022
     26 CD2       -31.3630   20.7980   21.2680 C.3     4  LEU4        0.0001
     27 CD1       -32.2230   21.4860   19.0200 C.3     4  LEU4        0.0001
     28 N         -28.3620   18.9700   20.9530 N.am    5  PHE5       -0.1960
     29 CA        -28.1610   17.5340   20.7610 C.3     5  PHE5        0.1771
     30 C         -26.7430   17.1720   20.3690 C.2     5  PHE5        0.2619
     31 O         -26.4970   16.1210   19.7660 O.2     5  PHE5       -0.2715
     32 CB        -29.1330   16.9910   19.7160 C.3     5  PHE5        0.0574
     33 CG        -30.5110   16.7690   20.2410 C.ar    5  PHE5       -0.0200
     34 CD2       -30.7330   15.8900   21.2890 C.ar    5  PHE5       -0.0042
     35 CD1       -31.5890   17.4500   19.6970 C.ar    5  PHE5       -0.0042
     36 CE2       -32.0120   15.6850   21.7910 C.ar    5  PHE5       -0.0003
     37 CE1       -32.8750   17.2540   20.1950 C.ar    5  PHE5       -0.0003
     38 CZ        -33.0840   16.3710   21.2430 C.ar    5  PHE5       -0.0000
     39 N         -25.8100   18.0410   20.7210 N.am    6  ARG6       -0.1977
     40 CA        -24.4170   17.8020   20.4130 C.3     6  ARG6        0.1597
     41 C         -23.7250   16.9520   21.4790 C.2     6  ARG6        0.2287
     42 O         -22.8540   16.1220   21.1610 O.2     6  ARG6       -0.2864
     43 CB        -23.6960   19.1300   20.2610 C.3     6  ARG6        0.0334
     44 CG        -22.7830   19.1440   19.0800 C.3     6  ARG6        0.0492
     45 CD        -23.3760   19.9920   18.0230 C.3     6  ARG6        0.2205
     46 NE        -22.7620   21.3070   17.9960 N.pl3   6  ARG6       -0.0865
     47 CZ        -21.5180   21.5270   17.5960 C.cat   6  ARG6        0.5346
     48 NH1       -20.7190   20.5080   17.3260 N.pl3   6  ARG6        0.1354
     49 NH2       -21.0810   22.7690   17.4550 N.pl3   6  ARG6        0.1354
     50 N         -33.1330   25.7880   11.4420 N.3     1  MET1       -0.1245
     51 CA        -33.0220   24.7570   12.4700 C.3     1  MET1        0.1570
     52 C         -33.7760   23.4710   12.1580 C.2     1  MET1        0.2261
     53 O         -33.3600   22.3910   12.5850 O.2     1  MET1       -0.2867
     54 CB        -33.4970   25.3000   13.8270 C.3     1  MET1        0.0387
     55 CG        -32.4660   26.1400   14.5840 C.3     1  MET1        0.0595
     56 SD        -30.9270   25.2560   14.9600 S.3     1  MET1       -0.1393
     57 CE        -31.5460   23.8790   15.9590 C.3     1  MET1        0.0692
     58 N         -31.2650   21.2370   10.1730 N.3     1  ARG1       -0.1231
     59 CA        -30.0900   20.9760   11.0140 C.3     1  ARG1        0.1694
     60 C         -30.3610   19.9210   12.0860 C.2     1  ARG1        0.2592
     61 O         -29.6490   18.9180   12.1950 O.2     1  ARG1       -0.2718
     62 CB        -29.6530   22.2670   11.7030 C.3     1  ARG1        0.0321
     63 CG        -28.4580   22.9330   11.0760 C.3     1  ARG1        0.0489
     64 CD        -27.9510   24.0360   11.9840 C.3     1  ARG1        0.2205
     65 NE        -27.4890   25.2010   11.2240 N.pl3   1  ARG1       -0.0865
     66 CZ        -26.9770   26.3040   11.7730 C.cat   1  ARG1        0.5346
     67 NH2       -26.9300   26.4360   13.0980 N.pl3   1  ARG1        0.1354
     68 NH1       -26.4780   27.2580   11.0030 N.pl3   1  ARG1        0.1354
     69 N         -31.4620   20.1050   12.8010 N.am    2  VAL2       -0.1966
     70 CA        -31.7970   19.2590   13.9390 C.3     2  VAL2        0.1727
     71 C         -32.0170   17.7900   13.5610 C.2     2  VAL2        0.2616
     72 O         -31.9500   16.8870   14.4230 O.2     2  VAL2       -0.2715
     73 CB        -33.0420   19.8180   14.6530 C.3     2  VAL2        0.0290
     74 CG1       -34.2880   19.5860   13.8190 C.3     2  VAL2        0.0023
     75 CG2       -33.1700   19.2110   16.0150 C.3     2  VAL2        0.0023
     76 N         -32.3060   17.5610   12.2810 N.am    3  VAL3       -0.1963
     77 CA        -32.5270   16.2170   11.7470 C.3     3  VAL3        0.1727
     78 C         -31.1840   15.7080   11.2400 C.2     3  VAL3        0.2617
     79 O         -30.8250   14.5210   11.4370 O.2     3  VAL3       -0.2715
     80 CB        -33.5510   16.2430   10.5670 C.3     3  VAL3        0.0290
     81 CG1       -33.6980   14.8460    9.9500 C.3     3  VAL3        0.0023
     82 CG2       -34.9090   16.7680   11.0470 C.3     3  VAL3        0.0023
     83 N         -30.4050   16.6320   10.6840 N.am    4  SER4       -0.1936
     84 CA        -29.1110   16.3170   10.1100 C.3     4  SER4        0.2055
     85 C         -28.1870   15.7940   11.1930 C.2     4  SER4        0.2644
     86 O         -27.5140   14.7770   11.0100 O.2     4  SER4       -0.2714
     87 CB        -28.5130   17.5660    9.4720 C.3     4  SER4        0.2130
     88 OG        -27.1190   17.4330    9.3270 O.3     4  SER4       -0.2179
     89 N         -28.2940   16.3990   12.3700 N.am    5  GLY5       -0.1939
     90 CA        -27.4750   16.0050   13.5030 C.3     5  GLY5        0.2014
     91 C         -27.6990   14.5880   13.9950 C.2     5  GLY5        0.2638
     92 O         -26.9040   14.0710   14.7880 O.2     5  GLY5       -0.2714
     93 N         -28.7840   13.9590   13.5620 N.am    6  PHE6       -0.1973
     94 CA        -29.0270   12.5660   13.9030 C.3     6  PHE6        0.1639
     95 C         -28.7720   11.6390   12.7250 C.2     6  PHE6        0.2290
     96 O         -27.9670   10.7160   12.8290 O.2     6  PHE6       -0.2864
     97 CB        -30.4560   12.3700   14.3990 C.3     6  PHE6        0.0560
     98 CG        -30.6800   12.8480   15.8050 C.ar    6  PHE6       -0.0200
     99 CD2       -30.2270   12.1030   16.8870 C.ar    6  PHE6       -0.0042
    100 CD1       -31.3640   14.0340   16.0480 C.ar    6  PHE6       -0.0042
    101 CE2       -30.4530   12.5320   18.1830 C.ar    6  PHE6       -0.0003
    102 CE1       -31.5940   14.4680   17.3390 C.ar    6  PHE6       -0.0003
    103 CZ        -31.1410   13.7150   18.4070 C.ar    6  PHE6       -0.0000
    104 N         -24.8410   13.0860   11.2960 N.3     1  LEU1       -0.1231
    105 CA        -23.8490   13.1540   12.3530 C.3     1  LEU1        0.1693
    106 C         -23.8230   11.8800   13.1940 C.2     1  LEU1        0.2591
    107 O         -22.7560   11.3110   13.4340 O.2     1  LEU1       -0.2718
    108 CB        -24.1230   14.3550   13.2490 C.3     1  LEU1        0.0284
    109 CG        -23.0440   14.6430   14.2840 C.3     1  LEU1        0.0019
    110 CD1       -21.7780   15.1410   13.5910 C.3     1  LEU1        0.0001
    111 CD2       -23.5790   15.6580   15.2840 C.3     1  LEU1        0.0001
    112 N         -24.9980   11.3710   13.5410 N.am    2  ARG2       -0.1980
    113 CA        -25.0650   10.2620   14.4800 C.3     2  ARG2        0.1597
    114 C         -25.5100    8.9330   13.8660 C.2     2  ARG2        0.2287
    115 O         -25.7650    7.9660   14.6090 O.2     2  ARG2       -0.2864
    116 CB        -25.9820   10.6240   15.6520 C.3     2  ARG2        0.0334
    117 CG        -25.4830   11.7760   16.5100 C.3     2  ARG2        0.0492
    118 CD        -26.4990   12.1150   17.5890 C.3     2  ARG2        0.2205
    119 NE        -26.0560   13.1830   18.4920 N.pl3   2  ARG2       -0.0865
    120 CZ        -25.3600   12.9800   19.6070 C.cat   2  ARG2        0.5346
    121 NH1       -24.7550   11.8170   19.8020 N.pl3   2  ARG2        0.1354
    122 NH2       -25.1230   13.9900   20.4370 N.pl3   2  ARG2        0.1354
    123 N         -20.5610   15.4290    5.8470 N.3     1  GLN1       -0.1245
    124 CA        -20.9370   16.1720    7.0400 C.3     1  GLN1        0.1566
    125 C         -21.0430   17.6680    6.7670 C.2     1  GLN1        0.2260
    126 O         -21.9310   18.3390    7.2900 O.2     1  GLN1       -0.2867
    127 CB        -19.9450   15.9240    8.1650 C.3     1  GLN1        0.0367
    128 CG        -20.4140   16.4770    9.4910 C.3     1  GLN1        0.0905
    129 CD        -21.8100   16.0160    9.8360 C.2     1  GLN1        0.2608
    130 OE1       -22.1310   14.8400    9.7010 O.2     1  GLN1       -0.2717
    131 NE2       -22.6600   16.9460   10.2520 N.am    1  GLN1       -0.0878
    132 N         -24.2470   18.0980    4.9410 N.3     1  ALA1       -0.1231
    133 CA        -25.3260   17.8630    5.8930 C.3     1  ALA1        0.1694
    134 C         -25.5640   19.0660    6.7940 C.2     1  ALA1        0.2592
    135 O         -26.6570   19.2380    7.3330 O.2     1  ALA1       -0.2718
    136 CB        -25.0260   16.6250    6.7380 C.3     1  ALA1        0.0304
    137 N         -24.5260   19.8650    7.0040 N.am    2  ASN2       -0.1974
    138 CA        -24.6630   21.0480    7.8370 C.3     2  ASN2        0.1688
    139 C         -24.9440   22.2630    6.9740 C.2     2  ASN2        0.2292
    140 O         -25.4660   23.2620    7.4650 O.2     2  ASN2       -0.2864
    141 CB        -23.3860   21.2960    8.6500 C.3     2  ASN2        0.1181
    142 CG        -23.0050   20.1230    9.5230 C.2     2  ASN2        0.2629
    143 OD1       -21.8240   19.7850    9.6300 O.2     2  ASN2       -0.2716
    144 ND2       -23.9880   19.5250   10.1950 N.am    2  ASN2       -0.0877
    145 N         -22.3550   23.7840    5.1680 N.3     1  VAL1       -0.1245
    146 CA        -21.1900   24.6580    5.2370 C.3     1  VAL1        0.1561
    147 C         -20.1730   24.3520    4.1520 C.2     1  VAL1        0.2260
    148 O         -19.7960   23.1960    3.9540 O.2     1  VAL1       -0.2867
    149 CB        -20.4680   24.5990    6.6160 C.3     1  VAL1        0.0252
    150 CG2       -20.8150   25.8170    7.4340 C.3     1  VAL1        0.0019
    151 CG1       -20.8410   23.3510    7.3730 C.3     1  VAL1        0.0019
    152 N         -11.6320   26.7690    7.2290 N.3     1  LYS1       -0.1245
    153 CA        -11.0950   25.8450    8.2270 C.3     1  LYS1        0.1561
    154 C          -9.7670   25.2710    7.7330 C.2     1  LYS1        0.2260
    155 O          -8.7550   25.9670    7.7590 O.2     1  LYS1       -0.2867
    156 CB        -12.1080   24.7460    8.5660 C.3     1  LYS1        0.0271
    157 CG        -12.8090   25.0360    9.8860 C.3     1  LYS1        0.0035
    158 CD        -14.1570   24.3710   10.0590 C.3     1  LYS1        0.0206
    159 CE        -14.8590   24.9300   11.3010 C.3     1  LYS1        0.1093
    160 NZ        -15.6670   23.9150   12.0480 N.3     1  LYS1       -0.1314
@<TRIPOS>BOND
     1     1     2    1
     2     2     5    1
     3     2     3    1
     4     3     4    2
     5     3     6   am
     6     6     7    1
     7     7    10    1
     8     7     8    1
     9     8     9    2
    10     8    13   am
    11    10    12    1
    12    10    11    1
    13    13    14    1
    14    14    15    1
    15    14    17    1
    16    15    20   am
    17    15    16    2
    18    17    19    1
    19    17    18    1
    20    20    21    1
    21    21    24    1
    22    21    22    1
    23    22    23    2
    24    22    28   am
    25    24    25    1
    26    25    27    1
    27    25    26    1
    28    28    29    1
    29    29    32    1
    30    29    30    1
    31    30    31    2
    32    30    39   am
    33    32    33    1
    34    33    35   ar
    35    33    34   ar
    36    34    36   ar
    37    35    37   ar
    38    36    38   ar
    39    37    38   ar
    40    39    40    1
    41    40    43    1
    42    40    41    1
    43    41    42    2
    44    43    44    1
    45    44    45    1
    46    45    46    1
    47    46    47    2
    48    47    48    1
    49    47    49    1
    50    50    51    1
    51    51    52    1
    52    51    54    1
    53    52    53    2
    54    54    55    1
    55    55    56    1
    56    56    57    1
    57    58    59    1
    58    59    62    1
    59    59    60    1
    60    60    61    2
    61    60    69   am
    62    62    63    1
    63    63    64    1
    64    64    65    1
    65    65    66    2
    66    66    68    1
    67    66    67    1
    68    69    70    1
    69    70    71    1
    70    70    73    1
    71    71    76   am
    72    71    72    2
    73    73    74    1
    74    73    75    1
    75    76    77    1
    76    77    80    1
    77    77    78    1
    78    78    83   am
    79    78    79    2
    80    80    81    1
    81    80    82    1
    82    83    84    1
    83    84    87    1
    84    84    85    1
    85    85    86    2
    86    85    89   am
    87    87    88    1
    88    89    90    1
    89    90    91    1
    90    91    93   am
    91    91    92    2
    92    93    94    1
    93    94    95    1
    94    94    97    1
    95    95    96    2
    96    97    98    1
    97    98   100   ar
    98    98    99   ar
    99    99   101   ar
   100   100   102   ar
   101   101   103   ar
   102   102   103   ar
   103   104   105    1
   104   105   106    1
   105   105   108    1
   106   106   107    2
   107   106   112   am
   108   108   109    1
   109   109   110    1
   110   109   111    1
   111   112   113    1
   112   113   114    1
   113   113   116    1
   114   114   115    2
   115   116   117    1
   116   117   118    1
   117   118   119    1
   118   119   120    2
   119   120   121    1
   120   120   122    1
   121   123   124    1
   122   124   125    1
   123   124   127    1
   124   125   126    2
   125   127   128    1
   126   128   129    1
   127   129   130    2
   128   129   131   am
   129   132   133    1
   130   133   136    1
   131   133   134    1
   132   134   137   am
   133   134   135    2
   134   137   138    1
   135   138   139    1
   136   138   141    1
   137   139   140    2
   138   141   142    1
   139   142   143    2
   140   142   144   am
   141   145   146    1
   142   146   147    1
   143   146   149    1
   144   147   148    2
   145   149   151    1
   146   149   150    1
   147   152   153    1
   148   153   154    1
   149   153   156    1
   150   154   155    2
   151   156   157    1
   152   157   158    1
   153   158   159    1
   154   159   160    1
