@<TRIPOS>MOLECULE
./1rn8/protein.pdb
 192 185 0 0 0
SMALL
GASTEIGER

@<TRIPOS>ATOM
      1 N           5.3320   33.3490   23.4180 N.3     1  MET1       -0.1230
      2 CA          5.1720   31.9900   22.9010 C.3     1  MET1        0.1702
      3 C           3.7440   31.5030   23.1270 C.2     1  MET1        0.2592
      4 O           3.0860   31.8630   24.1090 O.2     1  MET1       -0.2718
      5 CB          6.1730   31.0220   23.5460 C.3     1  MET1        0.0401
      6 CG          7.6560   31.3600   23.2940 C.3     1  MET1        0.0596
      7 SD          8.7340   31.0740   24.7620 S.3     1  MET1       -0.1393
      8 CE         10.3330   31.8090   24.2170 C.3     1  MET1        0.0692
      9 N           3.2500   30.7050   22.1900 N.am    2  LYS2       -0.1966
     10 CA          1.9170   30.1270   22.3240 C.3     2  LYS2        0.1728
     11 C           1.9190   28.7420   21.7100 C.2     2  LYS2        0.2616
     12 O           2.4100   28.5590   20.6060 O.2     2  LYS2       -0.2715
     13 CB          0.8750   30.9760   21.5870 C.3     2  LYS2        0.0311
     14 CG         -0.3700   31.2800   22.3990 C.3     2  LYS2        0.0038
     15 CD         -1.6130   30.7200   21.7990 C.3     2  LYS2        0.0206
     16 CE         -2.8390   31.1550   22.5960 C.3     2  LYS2        0.1093
     17 NZ         -3.3740   30.0400   23.4390 N.3     2  LYS2       -0.1314
     18 N           1.3700   27.7830   22.4270 N.am    3  LYS3       -0.1963
     19 CA          1.1180   26.4530   21.8850 C.3     3  LYS3        0.1728
     20 C          -0.1450   26.5230   21.0500 C.2     3  LYS3        0.2616
     21 O          -1.1830   27.0850   21.4770 O.2     3  LYS3       -0.2715
     22 CB          0.9790   25.4170   23.0120 C.3     3  LYS3        0.0311
     23 CG          2.2620   24.6570   23.3380 C.3     3  LYS3        0.0038
     24 CD          1.9430   23.3260   24.0610 C.3     3  LYS3        0.0206
     25 CE          3.1760   22.6680   24.7040 C.3     3  LYS3        0.1093
     26 NZ          4.0180   23.6000   25.5340 N.3     3  LYS3       -0.1314
     27 N          -0.0390   26.0060   19.8350 N.am    4  ILE4       -0.1963
     28 CA         -1.1410   25.9930   18.9010 C.3     4  ILE4        0.1727
     29 C          -1.4120   24.5950   18.3590 C.2     4  ILE4        0.2616
     30 O          -0.5260   23.9410   17.7920 O.2     4  ILE4       -0.2715
     31 CB         -0.8620   26.9860   17.7610 C.3     4  ILE4        0.0290
     32 CG1        -0.9730   28.4240   18.3240 C.3     4  ILE4        0.0022
     33 CG2        -1.8340   26.7840   16.6160 C.3     4  ILE4        0.0023
     34 CD1        -0.6730   29.4960   17.3550 C.3     4  ILE4        0.0001
     35 N          -2.6670   24.1740   18.4790 N.am    5  ASP5       -0.1959
     36 CA         -3.0820   22.8840   17.9770 C.3     5  ASP5        0.1783
     37 C          -2.9650   22.8320   16.4500 C.2     5  ASP5        0.2620
     38 O          -3.4070   23.7450   15.7520 O.2     5  ASP5       -0.2715
     39 CB         -4.5130   22.6020   18.3890 C.3     5  ASP5        0.0728
     40 CG         -4.6410   22.1900   19.8410 C.2     5  ASP5        0.0526
     41 OD2        -3.6320   22.0310   20.5720 O.co2   5  ASP5       -0.5491
     42 OD1        -5.7580   21.9930   20.3160 O.co2   5  ASP5       -0.5491
     43 N          -2.3720   21.7460   15.9590 N.am    6  VAL6       -0.1963
     44 CA         -2.2460   21.4640   14.5320 C.3     6  VAL6        0.1727
     45 C          -2.6840   20.0220   14.2530 C.2     6  VAL6        0.2616
     46 O          -2.3800   19.0980   15.0210 O.2     6  VAL6       -0.2715
     47 CB         -0.7880   21.6980   14.0200 C.3     6  VAL6        0.0290
     48 CG2         0.2050   20.7090   14.6250 C.3     6  VAL6        0.0023
     49 CG1        -0.7360   21.6530   12.4990 C.3     6  VAL6        0.0023
     50 N          -3.4460   19.8670   13.1770 N.am    7  LYS7       -0.1963
     51 CA         -3.8740   18.5790   12.6510 C.3     7  LYS7        0.1728
     52 C          -3.1870   18.3400   11.2970 C.2     7  LYS7        0.2616
     53 O          -3.2880   19.1570   10.3950 O.2     7  LYS7       -0.2715
     54 CB         -5.3960   18.5700   12.5000 C.3     7  LYS7        0.0311
     55 CG         -5.9920   17.2660   12.0210 C.3     7  LYS7        0.0038
     56 CD         -7.5280   17.3660   11.9610 C.3     7  LYS7        0.0206
     57 CE         -8.1900   16.0000   11.6370 C.3     7  LYS7        0.1093
     58 NZ         -9.3180   15.6370   12.5820 N.3     7  LYS7       -0.1314
     59 N          -2.4640   17.2340   11.1720 N.am    8  ILE8       -0.1977
     60 CA         -1.8220   16.9030    9.8960 C.3     8  ILE8        0.1596
     61 C          -2.8470   16.2300    9.0180 C.2     8  ILE8        0.2287
     62 O          -3.4200   15.2290    9.4100 O.2     8  ILE8       -0.2864
     63 CB         -0.5800   16.0390   10.1510 C.3     8  ILE8        0.0276
     64 CG1         0.5360   16.9000   10.7890 C.3     8  ILE8        0.0022
     65 CG2        -0.0620   15.3650    8.8480 C.3     8  ILE8        0.0022
     66 CD1         1.6890   16.0780   11.3220 C.3     8  ILE8        0.0001
     67 N           7.2860   20.0670    8.7110 N.3     1  LEU1       -0.1231
     68 CA          6.4070   21.0020    9.4150 C.3     1  LEU1        0.1678
     69 C           7.0270   22.3940    9.4060 C.2     1  LEU1        0.2434
     70 O           8.2370   22.5220    9.5110 O.2     1  LEU1       -0.2733
     71 CB          6.2630   20.6040   10.8770 C.3     1  LEU1        0.0284
     72 CG          4.9790   20.0430   11.5270 C.3     1  LEU1        0.0019
     73 CD1         3.6790   20.1720   10.7540 C.3     1  LEU1        0.0001
     74 CD2         5.2090   18.6020   11.9280 C.3     1  LEU1        0.0001
     75 N           6.2180   23.4370    9.3220 N.am    2  PRO2       -0.2718
     76 CA          6.7690   24.7920    9.4320 C.3     2  PRO2        0.1535
     77 C           7.5960   24.9380   10.7100 C.2     2  PRO2        0.2599
     78 O           7.2040   24.4110   11.7480 O.2     2  PRO2       -0.2715
     79 CB          5.5240   25.6730    9.4440 C.3     2  PRO2        0.0310
     80 CG          4.4960   24.8710    8.7530 C.3     2  PRO2        0.0237
     81 CD          4.7560   23.4490    9.1430 C.3     2  PRO2        0.0939
     82 N           8.7080   25.6610   10.6350 N.am    3  THR3       -0.1937
     83 CA          9.5760   25.9110   11.7910 C.3     3  THR3        0.2028
     84 C          10.1640   27.3370   11.7250 C.2     3  THR3        0.2642
     85 O          10.3100   27.8890   10.6540 O.2     3  THR3       -0.2714
     86 CB         10.7470   24.8370   11.8820 C.3     3  THR3        0.1808
     87 OG1        10.4240   23.6690   11.1200 O.3     3  THR3       -0.2208
     88 CG2        10.9060   24.2930   13.3100 C.3     3  THR3        0.0379
     89 N          10.4430   27.9400   12.8770 N.am    4  TYR4       -0.1973
     90 CA         11.2100   29.2010   12.9190 C.3     4  TYR4        0.1639
     91 C          12.7080   28.8670   12.7510 C.2     4  TYR4        0.2290
     92 O          13.2600   27.9930   13.4490 O.2     4  TYR4       -0.2864
     93 CB         11.0020   29.9430   14.2540 C.3     4  TYR4        0.0560
     94 CG          9.5850   30.3770   14.4510 C.ar    4  TYR4       -0.0198
     95 CD2         8.6970   29.5820   15.1830 C.ar    4  TYR4       -0.0009
     96 CD1         9.1040   31.5510   13.8610 C.ar    4  TYR4       -0.0009
     97 CE2         7.3670   29.9560   15.3410 C.ar    4  TYR4        0.0417
     98 CE1         7.7770   31.9370   14.0110 C.ar    4  TYR4        0.0417
     99 CZ          6.9100   31.1270   14.7610 C.ar    4  TYR4        0.1957
    100 OH          5.5850   31.4860   14.8910 O.3     4  TYR4       -0.2866
    101 N           7.1710   31.9540   10.2000 N.3     1  LEU1       -0.1231
    102 CA          7.6450   30.6260    9.8280 C.3     1  LEU1        0.1693
    103 C           7.2260   30.2930    8.3920 C.2     1  LEU1        0.2592
    104 O           6.2130   30.7640    7.9370 O.2     1  LEU1       -0.2718
    105 CB          7.1980   29.5770   10.8520 C.3     1  LEU1        0.0284
    106 CG          5.7710   29.0640   10.9760 C.3     1  LEU1        0.0019
    107 CD2         5.7140   28.1720   12.2190 C.3     1  LEU1        0.0001
    108 CD1         4.7330   30.1540   11.0870 C.3     1  LEU1        0.0001
    109 N           8.0460   29.5250    7.6800 N.am    2  ASP2       -0.1962
    110 CA          7.8060   29.2420    6.2660 C.3     2  ASP2        0.1783
    111 C           6.8230   28.0660    6.1120 C.2     2  ASP2        0.2619
    112 O           6.8770   27.0960    6.8630 O.2     2  ASP2       -0.2715
    113 CB          9.1130   28.8430    5.5260 C.3     2  ASP2        0.0728
    114 CG         10.0250   30.0210    5.1940 C.2     2  ASP2        0.0526
    115 OD2         9.6240   31.1900    5.4040 O.co2   2  ASP2       -0.5491
    116 OD1        11.1850   29.8480    4.7110 O.co2   2  ASP2       -0.5491
    117 N           5.9150   28.2110    5.1460 N.am    3  LEU3       -0.1977
    118 CA          4.9330   27.2160    4.7940 C.3     3  LEU3        0.1596
    119 C           5.4180   26.5510    3.5450 C.2     3  LEU3        0.2287
    120 O           5.8960   27.2260    2.6230 O.2     3  LEU3       -0.2864
    121 CB          3.5910   27.8830    4.5190 C.3     3  LEU3        0.0297
    122 CG          2.9370   28.6700    5.6750 C.3     3  LEU3        0.0022
    123 CD1         1.5980   29.2610    5.2310 C.3     3  LEU3        0.0001
    124 CD2         2.7460   27.7940    6.8910 C.3     3  LEU3        0.0001
    125 N          -1.3820   23.1910    2.0550 N.3     1  THR1       -0.1218
    126 CA         -0.2930   22.9920    3.0120 C.3     1  THR1        0.1862
    127 C          -0.3050   21.6010    3.6040 C.2     1  THR1        0.2287
    128 O           0.6640   21.2030    4.2260 O.2     1  THR1       -0.2866
    129 CB         -0.3940   23.9600    4.1730 C.3     1  THR1        0.1770
    130 OG1        -1.6940   23.8480    4.7780 O.3     1  THR1       -0.2211
    131 CG2        -0.2520   25.4380    3.6970 C.3     1  THR1        0.0375
    132 N          -2.1280   20.8590    6.1160 N.3     1  LEU1       -0.1231
    133 CA         -2.3650   20.9950    7.5420 C.3     1  LEU1        0.1693
    134 C          -3.4310   22.0080    7.8600 C.2     1  LEU1        0.2592
    135 O          -3.7530   22.8830    7.0300 O.2     1  LEU1       -0.2718
    136 CB         -1.0830   21.2860    8.3010 C.3     1  LEU1        0.0284
    137 CG         -0.3990   22.5840    7.9630 C.3     1  LEU1        0.0019
    138 CD2        -0.9410   23.6820    8.8690 C.3     1  LEU1        0.0001
    139 CD1         1.1140   22.4710    8.1190 C.3     1  LEU1        0.0001
    140 N          -3.9690   21.8330    9.0630 N.am    2  ALA2       -0.1966
    141 CA         -4.9850   22.6870    9.6580 C.3     2  ALA2        0.1728
    142 C          -4.4650   23.1620   11.0040 C.2     2  ALA2        0.2616
    143 O          -3.8640   22.3880   11.7320 O.2     2  ALA2       -0.2715
    144 CB         -6.2430   21.9360    9.8410 C.3     2  ALA2        0.0334
    145 N          -4.6820   24.4320   11.3420 N.am    3  ILE3       -0.1977
    146 CA         -4.3980   24.9000   12.7030 C.3     3  ILE3        0.1596
    147 C          -5.6850   25.3580   13.4090 C.2     3  ILE3        0.2287
    148 O          -6.6870   25.6340   12.7660 O.2     3  ILE3       -0.2864
    149 CB         -3.2990   26.0080   12.7150 C.3     3  ILE3        0.0276
    150 CG1        -3.7950   27.3170   12.0830 C.3     3  ILE3        0.0022
    151 CG2        -2.0500   25.5310   11.9940 C.3     3  ILE3        0.0022
    152 CD1        -2.8540   28.4660   12.2930 C.3     3  ILE3        0.0001
    153 N          -6.0670   28.2070   16.1650 N.3     1  ILE1       -0.1245
    154 CA         -5.4670   29.2380   17.0040 C.3     1  ILE1        0.1561
    155 C          -6.2440   29.3520   18.3070 C.2     1  ILE1        0.2260
    156 O          -5.6500   29.4750   19.3600 O.2     1  ILE1       -0.2867
    157 CB         -5.4840   30.5720   16.2440 C.3     1  ILE1        0.0252
    158 CG1        -4.4200   30.5490   15.1540 C.3     1  ILE1        0.0019
    159 CG2        -5.1700   31.7430   17.1850 C.3     1  ILE1        0.0019
    160 CD1        -4.6270   31.6260   14.0810 C.3     1  ILE1        0.0001
    161 N          -3.4580   34.9680   12.5700 N.3     1  ALA1       -0.1245
    162 CA         -2.2380   34.8140   11.7910 C.3     1  ALA1        0.1562
    163 C          -2.3800   35.5680   10.4740 C.2     1  ALA1        0.2260
    164 O          -3.5130   35.7560    9.9410 O.2     1  ALA1       -0.2867
    165 CB         -1.9470   33.3290   11.5640 C.3     1  ALA1        0.0290
    166 N          -5.1470   25.0810    5.8530 N.3     1  LEU1       -0.1245
    167 CA         -4.5260   26.3310    5.4340 C.3     1  LEU1        0.1561
    168 C          -4.1650   26.2310    3.9490 C.2     1  LEU1        0.2260
    169 O          -3.4390   25.3260    3.5430 O.2     1  LEU1       -0.2867
    170 CB         -3.2590   26.5740    6.2230 C.3     1  LEU1        0.0270
    171 CG         -3.3700   26.9390    7.6860 C.3     1  LEU1        0.0019
    172 CD2        -1.9770   27.0810    8.2700 C.3     1  LEU1        0.0001
    173 CD1        -4.1520   28.2310    7.8530 C.3     1  LEU1        0.0001
    174 N           4.2390   32.9080    7.4970 N.3     1  MET1       -0.1245
    175 CA          3.1000   33.2190    8.3470 C.3     1  MET1        0.1570
    176 C           3.5450   33.7120    9.7250 C.2     1  MET1        0.2261
    177 O           4.4480   33.1290   10.3410 O.2     1  MET1       -0.2867
    178 CB          2.2310   31.9620    8.4850 C.3     1  MET1        0.0387
    179 CG          0.9390   32.1970    9.2280 C.3     1  MET1        0.0595
    180 SD         -0.2040   30.7900    9.0040 S.3     1  MET1       -0.1393
    181 CE          0.5090   29.7420    9.9430 C.3     1  MET1        0.0692
    182 N           2.0030   35.2610   13.6440 N.3     1  PHE1       -0.1241
    183 CA          0.8990   35.3100   14.5790 C.3     1  PHE1        0.1605
    184 C           0.9780   36.6530   15.2720 C.2     1  PHE1        0.2264
    185 O           2.0140   37.0230   15.8090 O.2     1  PHE1       -0.2867
    186 CB          1.0340   34.1600   15.5690 C.3     1  PHE1        0.0534
    187 CG          0.8160   32.8130   14.9400 C.ar    1  PHE1       -0.0203
    188 CD2        -0.4480   32.2530   14.9020 C.ar    1  PHE1       -0.0042
    189 CD1         1.8850   32.1030   14.3760 C.ar    1  PHE1       -0.0042
    190 CE2        -0.6530   31.0020   14.3140 C.ar    1  PHE1       -0.0003
    191 CE1         1.6800   30.8750   13.7900 C.ar    1  PHE1       -0.0003
    192 CZ          0.4050   30.3320   13.7500 C.ar    1  PHE1       -0.0000
@<TRIPOS>UNITY_ATOM_ATTR
41 1
charge -1
115 1
charge -1
@<TRIPOS>BOND
     1     1     2    1
     2     2     3    1
     3     2     5    1
     4     3     9   am
     5     3     4    2
     6     5     6    1
     7     6     7    1
     8     7     8    1
     9     9    10    1
    10    10    13    1
    11    10    11    1
    12    11    12    2
    13    11    18   am
    14    13    14    1
    15    14    15    1
    16    15    16    1
    17    16    17    1
    18    18    19    1
    19    19    20    1
    20    19    22    1
    21    20    27   am
    22    20    21    2
    23    22    23    1
    24    23    24    1
    25    24    25    1
    26    25    26    1
    27    27    28    1
    28    28    31    1
    29    28    29    1
    30    29    30    2
    31    29    35   am
    32    31    33    1
    33    31    32    1
    34    32    34    1
    35    35    36    1
    36    36    37    1
    37    36    39    1
    38    37    38    2
    39    37    43   am
    40    39    40    1
    41    40    42   ar
    42    40    41   ar
    43    43    44    1
    44    44    47    1
    45    44    45    1
    46    45    50   am
    47    45    46    2
    48    47    49    1
    49    47    48    1
    50    50    51    1
    51    51    52    1
    52    51    54    1
    53    52    53    2
    54    52    59   am
    55    54    55    1
    56    55    56    1
    57    56    57    1
    58    57    58    1
    59    59    60    1
    60    60    61    1
    61    60    63    1
    62    61    62    2
    63    63    65    1
    64    63    64    1
    65    64    66    1
    66    67    68    1
    67    68    69    1
    68    68    71    1
    69    69    75   am
    70    69    70    2
    71    71    72    1
    72    72    73    1
    73    72    74    1
    74    75    81    1
    75    75    76    1
    76    76    79    1
    77    76    77    1
    78    77    82   am
    79    77    78    2
    80    79    80    1
    81    80    81    1
    82    82    83    1
    83    83    84    1
    84    83    86    1
    85    84    85    2
    86    84    89   am
    87    86    87    1
    88    86    88    1
    89    89    90    1
    90    90    91    1
    91    90    93    1
    92    91    92    2
    93    93    94    1
    94    94    96   ar
    95    94    95   ar
    96    95    97   ar
    97    96    98   ar
    98    97    99   ar
    99    98    99   ar
   100    99   100    1
   101   101   102    1
   102   102   103    1
   103   102   105    1
   104   103   109   am
   105   103   104    2
   106   105   106    1
   107   106   108    1
   108   106   107    1
   109   109   110    1
   110   110   113    1
   111   110   111    1
   112   111   117   am
   113   111   112    2
   114   113   114    1
   115   114   116   ar
   116   114   115   ar
   117   117   118    1
   118   118   119    1
   119   118   121    1
   120   119   120    2
   121   121   122    1
   122   122   123    1
   123   122   124    1
   124   125   126    1
   125   126   127    1
   126   126   129    1
   127   127   128    2
   128   129   131    1
   129   129   130    1
   130   132   133    1
   131   133   134    1
   132   133   136    1
   133   134   135    2
   134   134   140   am
   135   136   137    1
   136   137   139    1
   137   137   138    1
   138   140   141    1
   139   141   144    1
   140   141   142    1
   141   142   145   am
   142   142   143    2
   143   145   146    1
   144   146   149    1
   145   146   147    1
   146   147   148    2
   147   149   151    1
   148   149   150    1
   149   150   152    1
   150   153   154    1
   151   154   157    1
   152   154   155    1
   153   155   156    2
   154   157   158    1
   155   157   159    1
   156   158   160    1
   157   161   162    1
   158   162   163    1
   159   162   165    1
   160   163   164    2
   161   166   167    1
   162   167   168    1
   163   167   170    1
   164   168   169    2
   165   170   171    1
   166   171   173    1
   167   171   172    1
   168   174   175    1
   169   175   178    1
   170   175   176    1
   171   176   177    2
   172   178   179    1
   173   179   180    1
   174   180   181    1
   175   182   183    1
   176   183   184    1
   177   183   186    1
   178   184   185    2
   179   186   187    1
   180   187   189   ar
   181   187   188   ar
   182   188   190   ar
   183   189   191   ar
   184   190   192   ar
   185   191   192   ar
