@<TRIPOS>MOLECULE
./1i1h/protein.pdb
 138 133 0 0 0
SMALL
GASTEIGER

@<TRIPOS>ATOM
      1 N          63.5670   20.4490   -0.1290 N.3     1  TYR1       -0.1241
      2 CA         63.0010   20.3240   -1.4760 C.3     1  TYR1        0.1605
      3 C          63.7050   19.2430   -2.2460 C.2     1  TYR1        0.2264
      4 O          63.0550   18.4170   -2.8860 O.2     1  TYR1       -0.2867
      5 CB         63.1080   21.6400   -2.2390 C.3     1  TYR1        0.0534
      6 CG         61.8460   22.4550   -2.1960 C.ar    1  TYR1       -0.0201
      7 CD2        61.8940   23.8390   -2.0410 C.ar    1  TYR1       -0.0009
      8 CD1        60.5960   21.8380   -2.2960 C.ar    1  TYR1       -0.0009
      9 CE2        60.7180   24.5960   -1.9790 C.ar    1  TYR1        0.0417
     10 CE1        59.4170   22.5740   -2.2390 C.ar    1  TYR1        0.0417
     11 CZ         59.4810   23.9550   -2.0780 C.ar    1  TYR1        0.1957
     12 OH         58.3160   24.6850   -2.0120 O.3     1  TYR1       -0.2866
     13 N          61.3690   15.8660   -3.2370 N.3     1  PHE1       -0.1241
     14 CA         61.1770   15.4130   -4.6130 C.3     1  PHE1        0.1605
     15 C          61.9450   14.0890   -4.7910 C.2     1  PHE1        0.2264
     16 O          61.4890   13.1640   -5.4600 O.2     1  PHE1       -0.2867
     17 CB         61.7000   16.4580   -5.5960 C.3     1  PHE1        0.0534
     18 CG         60.6800   17.4850   -6.0030 C.ar    1  PHE1       -0.0203
     19 CD2        59.8820   18.1140   -5.0530 C.ar    1  PHE1       -0.0042
     20 CD1        60.5400   17.8480   -7.3530 C.ar    1  PHE1       -0.0042
     21 CE2        58.9560   19.0980   -5.4390 C.ar    1  PHE1       -0.0003
     22 CE1        59.6140   18.8320   -7.7500 C.ar    1  PHE1       -0.0003
     23 CZ         58.8280   19.4550   -6.7960 C.ar    1  PHE1       -0.0000
     24 N          55.0710   17.0320   -8.2000 N.3     1  ARG1       -0.1231
     25 CA         54.7940   18.1290   -7.2740 C.3     1  ARG1        0.1694
     26 C          53.3980   17.9040   -6.7120 C.2     1  ARG1        0.2591
     27 O          53.1270   18.1920   -5.5380 O.2     1  ARG1       -0.2718
     28 CB         54.7410   19.4900   -7.9630 C.3     1  ARG1        0.0321
     29 CG         55.9080   19.9050   -8.7840 C.3     1  ARG1        0.0489
     30 CD         55.7150   21.3500   -9.1190 C.3     1  ARG1        0.2205
     31 NE         55.7850   22.1950   -7.9330 N.pl3   1  ARG1       -0.0865
     32 CZ         56.9220   22.5600   -7.3560 C.cat   1  ARG1        0.5346
     33 NH1        58.0880   22.1480   -7.8570 N.pl3   1  ARG1        0.1354
     34 NH2        56.8990   23.3530   -6.3010 N.pl3   1  ARG1        0.1354
     35 N          52.4990   17.4410   -7.5830 N.am    2  MET2       -0.1979
     36 CA         51.1010   17.1860   -7.2080 C.3     2  MET2        0.1605
     37 C          51.1380   16.2510   -6.0270 C.2     2  MET2        0.2287
     38 O          50.4690   16.4660   -5.0120 O.2     2  MET2       -0.2864
     39 CB         50.3310   16.5350   -8.3690 C.3     2  MET2        0.0413
     40 CG         50.0900   17.4740   -9.5390 C.3     2  MET2        0.0598
     41 SD         48.6870   16.9560  -10.5330 S.3     2  MET2       -0.1393
     42 CE         49.2900   17.1010  -12.2130 C.3     2  MET2        0.0692
     43 N          53.7460   15.8320   -4.3830 N.3     1  HIS1       -0.1226
     44 CA         54.4640   16.5500   -3.3400 C.3     1  HIS1        0.1752
     45 C          53.4570   17.2510   -2.5020 C.2     1  HIS1        0.2595
     46 O          53.2910   16.9190   -1.3550 O.2     1  HIS1       -0.2718
     47 CB         55.4560   17.5710   -3.9160 C.3     1  HIS1        0.0759
     48 CG         56.2020   18.3400   -2.8690 C.ar    1  HIS1        0.0818
     49 ND1        56.7870   17.7380   -1.7740 N.ar    1  HIS1       -0.2268
     50 CD2        56.4890   19.6590   -2.7680 C.ar    1  HIS1        0.1154
     51 CE1        57.4030   18.6520   -1.0490 C.ar    1  HIS1        0.1986
     52 NE2        57.2360   19.8250   -1.6280 N.ar    1  HIS1       -0.2212
     53 N          52.7590   18.2040   -3.1080 N.am    2  ALA2       -0.1980
     54 CA         51.7540   19.0030   -2.3980 C.3     2  ALA2        0.1597
     55 C          50.7690   18.2160   -1.5290 C.2     2  ALA2        0.2287
     56 O          50.2830   18.7470   -0.5060 O.2     2  ALA2       -0.2864
     57 CB         50.9730   19.8810   -3.3830 C.3     2  ALA2        0.0319
     58 N          46.2320   30.9250   -4.1170 N.3     1  HIS1       -0.1226
     59 CA         47.3320   31.2290   -3.2200 C.3     1  HIS1        0.1752
     60 C          48.3840   30.1240   -3.1260 C.2     1  HIS1        0.2597
     61 O          49.2770   30.1730   -2.2850 O.2     1  HIS1       -0.2718
     62 CB         46.8080   31.5930   -1.8300 C.3     1  HIS1        0.0759
     63 CG         46.2600   32.9840   -1.7470 C.ar    1  HIS1        0.0818
     64 ND1        44.9330   33.2510   -1.4820 N.ar    1  HIS1       -0.2268
     65 CD2        46.8490   34.1840   -1.9620 C.ar    1  HIS1        0.1154
     66 CE1        44.7280   34.5530   -1.5440 C.ar    1  HIS1        0.1986
     67 NE2        45.8740   35.1420   -1.8340 N.ar    1  HIS1       -0.2212
     68 N          48.2820   29.1410   -4.0160 N.am    2  GLY2       -0.1942
     69 CA         49.2400   28.0540   -4.0500 C.3     2  GLY2        0.2014
     70 C          50.1860   28.3080   -5.2000 C.2     2  GLY2        0.2639
     71 O          51.2580   27.7210   -5.3150 O.2     2  GLY2       -0.2714
     72 N          49.7960   29.2120   -6.0740 N.am    3  VAL3       -0.1963
     73 CA         50.6230   29.5180   -7.2160 C.3     3  VAL3        0.1727
     74 C          51.7690   30.3890   -6.7330 C.2     3  VAL3        0.2616
     75 O          51.5420   31.5000   -6.2660 O.2     3  VAL3       -0.2715
     76 CB         49.8230   30.2950   -8.2720 C.3     3  VAL3        0.0290
     77 CG1        50.6780   30.5160   -9.5130 C.3     3  VAL3        0.0023
     78 CG2        48.5320   29.5530   -8.5960 C.3     3  VAL3        0.0023
     79 N          52.9970   29.8830   -6.8170 N.am    4  THR4       -0.1951
     80 CA         54.1520   30.6740   -6.4190 C.3     4  THR4        0.1897
     81 C          54.4930   31.6560   -7.5030 C.2     4  THR4        0.2313
     82 O          55.1710   31.3080   -8.4740 O.2     4  THR4       -0.2863
     83 CB         55.3850   29.8270   -6.1720 C.3     4  THR4        0.1794
     84 OG1        55.2680   29.2490   -4.8910 O.3     4  THR4       -0.2208
     85 CG2        56.6170   30.6610   -6.1460 C.3     4  THR4        0.0378
     86 N          57.5510   31.7230   -9.4900 N.3     1  ARG1       -0.1245
     87 CA         57.8060   30.7210  -10.5050 C.3     1  ARG1        0.1563
     88 C          57.0790   30.9050  -11.8540 C.2     1  ARG1        0.2260
     89 O          57.2960   30.1030  -12.7810 O.2     1  ARG1       -0.2867
     90 CB         57.4850   29.3560   -9.9310 C.3     1  ARG1        0.0307
     91 CG         58.0970   29.1620   -8.5720 C.3     1  ARG1        0.0489
     92 CD         57.6850   27.8450   -7.9020 C.3     1  ARG1        0.2205
     93 NE         58.3970   26.6950   -8.4500 N.pl3   1  ARG1       -0.0865
     94 CZ         58.0570   26.0690   -9.5680 C.cat   1  ARG1        0.5346
     95 NH1        57.0020   26.4730  -10.2660 N.pl3   1  ARG1        0.1354
     96 NH2        58.7820   25.0430   -9.9940 N.pl3   1  ARG1        0.1354
     97 N          43.0580   22.1380   -4.1140 N.3     1  SER1       -0.1202
     98 CA         43.7530   23.3790   -4.3460 C.3     1  SER1        0.2020
     99 C          45.2610   23.1140   -4.3720 C.2     1  SER1        0.2619
    100 O          45.9760   23.5880   -5.2760 O.2     1  SER1       -0.2717
    101 CB         43.3910   24.3060   -3.2200 C.3     1  SER1        0.2103
    102 OG         43.1260   23.5030   -2.0860 O.3     1  SER1       -0.2182
    103 N          45.7510   22.3590   -3.3870 N.am    2  ALA2       -0.1965
    104 CA         47.1730   22.0590   -3.3490 C.3     2  ALA2        0.1728
    105 C          47.6010   21.3800   -4.6610 C.2     2  ALA2        0.2616
    106 O          48.3920   21.9240   -5.4340 O.2     2  ALA2       -0.2715
    107 CB         47.5170   21.1920   -2.1330 C.3     2  ALA2        0.0334
    108 N          47.0610   20.2000   -4.9250 N.am    3  MET3       -0.1977
    109 CA         47.4010   19.5040   -6.1470 C.3     3  MET3        0.1605
    110 C          47.2190   20.4060   -7.3420 C.2     3  MET3        0.2287
    111 O          48.0850   20.4650   -8.2160 O.2     3  MET3       -0.2864
    112 CB         46.5340   18.2640   -6.3200 C.3     3  MET3        0.0413
    113 CG         47.0090   17.0760   -5.5260 C.3     3  MET3        0.0598
    114 SD         45.9810   15.6930   -5.9460 S.3     3  MET3       -0.1393
    115 CE         45.7310   14.8960   -4.2120 C.3     3  MET3        0.0692
    116 N          47.1740   23.7960   -7.5680 N.3     1  ALA1       -0.1231
    117 CA         48.1980   24.8100   -7.4950 C.3     1  ALA1        0.1694
    118 C          49.5570   24.1670   -7.7550 C.2     1  ALA1        0.2592
    119 O          50.3910   24.7090   -8.4880 O.2     1  ALA1       -0.2718
    120 CB         48.1660   25.4380   -6.1240 C.3     1  ALA1        0.0304
    121 N          49.7810   23.0100   -7.1410 N.am    2  ALA2       -0.1966
    122 CA         51.0270   22.2850   -7.3390 C.3     2  ALA2        0.1728
    123 C          51.1530   22.0280   -8.8260 C.2     2  ALA2        0.2616
    124 O          52.2150   22.2360   -9.4190 O.2     2  ALA2       -0.2715
    125 CB         51.0040   20.9730   -6.6060 C.3     2  ALA2        0.0334
    126 N          50.0680   21.5840   -9.4430 N.am    3  ALA3       -0.1977
    127 CA         50.1390   21.2900  -10.8640 C.3     3  ALA3        0.1597
    128 C          50.4600   22.5680  -11.6250 C.2     3  ALA3        0.2287
    129 O          51.2790   22.5610  -12.5580 O.2     3  ALA3       -0.2864
    130 CB         48.8120   20.6690  -11.3600 C.3     3  ALA3        0.0319
    131 N          51.9420   25.1690  -10.4090 N.3     1  ASN1       -0.1240
    132 CA         53.3350   25.4540  -10.1490 C.3     1  ASN1        0.1653
    133 C          54.2910   24.6640  -11.0090 C.2     1  ASN1        0.2266
    134 O          55.3070   25.2020  -11.4520 O.2     1  ASN1       -0.2867
    135 CB         53.6490   25.2240   -8.6890 C.3     1  ASN1        0.1155
    136 CG         53.3090   26.4070   -7.8580 C.2     1  ASN1        0.2627
    137 OD1        52.9140   26.2660   -6.7210 O.2     1  ASN1       -0.2716
    138 ND2        53.4560   27.5980   -8.4300 N.am    1  ASN1       -0.0877
@<TRIPOS>BOND
     1     1     2    1
     2     2     3    1
     3     2     5    1
     4     3     4    2
     5     5     6    1
     6     6     8   ar
     7     6     7   ar
     8     7     9   ar
     9     8    10   ar
    10     9    11   ar
    11    10    11   ar
    12    11    12    1
    13    13    14    1
    14    14    17    1
    15    14    15    1
    16    15    16    2
    17    17    18    1
    18    18    20   ar
    19    18    19   ar
    20    19    21   ar
    21    20    22   ar
    22    21    23   ar
    23    22    23   ar
    24    24    25    1
    25    25    28    1
    26    25    26    1
    27    26    35   am
    28    26    27    2
    29    28    29    1
    30    29    30    1
    31    30    31    1
    32    31    32    2
    33    32    33    1
    34    32    34    1
    35    35    36    1
    36    36    39    1
    37    36    37    1
    38    37    38    2
    39    39    40    1
    40    40    41    1
    41    41    42    1
    42    43    44    1
    43    44    47    1
    44    44    45    1
    45    45    53   am
    46    45    46    2
    47    47    48    1
    48    48    50   ar
    49    48    49   ar
    50    49    51   ar
    51    50    52   ar
    52    51    52   ar
    53    53    54    1
    54    54    57    1
    55    54    55    1
    56    55    56    2
    57    58    59    1
    58    59    60    1
    59    59    62    1
    60    60    68   am
    61    60    61    2
    62    62    63    1
    63    63    65   ar
    64    63    64   ar
    65    64    66   ar
    66    65    67   ar
    67    66    67   ar
    68    68    69    1
    69    69    70    1
    70    70    72   am
    71    70    71    2
    72    72    73    1
    73    73    76    1
    74    73    74    1
    75    74    79   am
    76    74    75    2
    77    76    77    1
    78    76    78    1
    79    79    80    1
    80    80    81    1
    81    80    83    1
    82    81    82    2
    83    83    85    1
    84    83    84    1
    85    86    87    1
    86    87    88    1
    87    87    90    1
    88    88    89    2
    89    90    91    1
    90    91    92    1
    91    92    93    1
    92    93    94    2
    93    94    95    1
    94    94    96    1
    95    97    98    1
    96    98    99    1
    97    98   101    1
    98    99   100    2
    99    99   103   am
   100   101   102    1
   101   103   104    1
   102   104   105    1
   103   104   107    1
   104   105   106    2
   105   105   108   am
   106   108   109    1
   107   109   110    1
   108   109   112    1
   109   110   111    2
   110   112   113    1
   111   113   114    1
   112   114   115    1
   113   116   117    1
   114   117   118    1
   115   117   120    1
   116   118   119    2
   117   118   121   am
   118   121   122    1
   119   122   123    1
   120   122   125    1
   121   123   126   am
   122   123   124    2
   123   126   127    1
   124   127   128    1
   125   127   130    1
   126   128   129    2
   127   131   132    1
   128   132   133    1
   129   132   135    1
   130   133   134    2
   131   135   136    1
   132   136   138   am
   133   136   137    2
