@<TRIPOS>MOLECULE
./1a6w/ligand.pdb
 17 17 0 0 0
SMALL
GASTEIGER

@<TRIPOS>ATOM
      1  C1        42.7770   12.7480    2.0660 C.ar    1  NIP1       -0.0108
      2  C2        41.7910   12.7990    3.0360 C.ar    1  NIP1        0.0236
      3  C3        40.8300   11.7790    3.1200 C.ar    1  NIP1        0.1816
      4  N3        39.7900   11.9030    4.1410 N.pl3   1  NIP1        0.0609
      5  O3A       39.2870   12.9640    4.5910 O.2     1  NIP1       -0.1260
      6  O3B       39.1700   10.8370    4.4010 O.2     1  NIP1       -0.1260
      7  C4        40.9500   10.6580    2.2530 C.ar    1  NIP1        0.2232
      8  O4        40.0370    9.5900    2.3680 O.3     1  NIP1       -0.2843
      9  C5        41.9460   10.5290    1.2860 C.ar    1  NIP1        0.0703
     10  C6        42.8420   11.6290    1.2410 C.ar    1  NIP1        0.0053
     11  C7        43.7000   13.9080    2.0540 C.3     1  NIP1        0.1132
     12  C8        43.3320   14.9140    1.0070 C.2     1  NIP1        0.2458
     13  O8        42.5280   15.8280    1.2580 O.2     1  NIP1       -0.2730
     14  N9        43.7890   14.6880   -0.1890 N.am    1  NIP1       -0.2051
     15  C10       43.3690   15.4850   -1.2760 C.3     1  NIP1        0.1152
     16  C11       43.2040   14.7350   -2.6060 C.3     1  NIP1        0.0252
     17  I5        42.0970    8.9160   -0.0050 I       1  NIP1       -0.0392
@<TRIPOS>BOND
     1     1     2   ar
     2     1    10   ar
     3     1    11    1
     4     2     3   ar
     5     3     4    1
     6     3     7   ar
     7     4     5    2
     8     4     6    2
     9     7     8    1
    10     7     9   ar
    11     9    10   ar
    12     9    17    1
    13    11    12    1
    14    12    13    2
    15    12    14   am
    16    14    15    1
    17    15    16    1
