@<TRIPOS>MOLECULE
./1inc/ligand.pdb
 24 24 0 0 0
SMALL
GASTEIGER

@<TRIPOS>ATOM
      1 CL        -10.8240   25.0840   38.8990 Cl      1  ICL1       -0.0821
      2  C1        -8.9960   23.0670   37.9320 C.2     1  ICL1        0.2363
      3  N1        -9.3560   21.7460   35.2840 N.am    1  ICL1       -0.1776
      4  O1        -8.3630   22.0120   38.0610 O.2     1  ICL1       -0.2831
      5  C2       -10.1330   23.2110   37.1540 C.ar    1  ICL1        0.0681
      6  N2        -6.3520   22.6080   33.4580 N.am    1  ICL1       -0.1611
      7  O2        -7.7730   23.4010   35.4460 O.2     1  ICL1       -0.2711
      8  C3       -11.1320   24.0910   37.6090 C.ar    1  ICL1        0.0621
      9  O3        -7.5490   22.6600   31.4700 O.2     1  ICL1       -0.2246
     10  C4       -12.3700   24.0940   36.9590 C.ar    1  ICL1        0.0116
     11  O4        -5.8010   24.0860   31.9550 O.3     1  ICL1       -0.4408
     12  C5       -12.5750   23.2980   35.8160 C.ar    1  ICL1        0.0022
     13  C6       -11.5620   22.4680   35.3270 C.ar    1  ICL1        0.0168
     14  C7       -10.3410   22.4040   35.9910 C.ar    1  ICL1        0.0774
     15  C8        -8.1010   22.2410   35.1240 C.2     1  ICL1        0.2655
     16  C9        -7.1340   21.5450   34.1840 C.3     1  ICL1        0.1764
     17  C10       -6.2000   20.7240   35.1080 C.3     1  ICL1        0.0291
     18  C11       -4.7220   20.9070   34.7410 C.3     1  ICL1        0.0023
     19  C12       -6.6380   19.2570   35.1590 C.3     1  ICL1        0.0023
     20  C13       -6.6410   23.0840   32.2170 C.2     1  ICL1        0.4213
     21  C14       -5.9300   24.8150   30.6550 C.3     1  ICL1        0.1379
     22  C15       -7.3650   25.3830   30.4960 C.3     1  ICL1        0.0437
     23  C16       -5.5730   23.9320   29.4390 C.3     1  ICL1        0.0437
     24  C17       -4.9110   25.9710   30.7100 C.3     1  ICL1        0.0437
@<TRIPOS>BOND
     1     1     8    1
     2     2     4    2
     3     2     5    1
     4     3    15   am
     5     3    14    1
     6     5     8   ar
     7     5    14   ar
     8     6    20   am
     9     6    16    1
    10     7    15    2
    11     8    10   ar
    12     9    20    2
    13    10    12   ar
    14    11    21    1
    15    11    20    1
    16    12    13   ar
    17    13    14   ar
    18    15    16    1
    19    16    17    1
    20    17    18    1
    21    17    19    1
    22    21    22    1
    23    21    23    1
    24    21    24    1
