@<TRIPOS>MOLECULE
./3gqk/protein.pdb
 189 187 0 0 0
SMALL
GASTEIGER

@<TRIPOS>ATOM
      1 N          -7.7990    8.3340    4.6530 N.3     1  TYR1       -0.1241
      2 CA         -8.9600    9.2320    4.8010 C.3     1  TYR1        0.1605
      3 C          -9.0020    9.8500    6.1880 C.2     1  TYR1        0.2264
      4 O          -8.9030    9.1290    7.1850 O.2     1  TYR1       -0.2867
      5 CB        -10.2960    8.5510    4.4800 C.3     1  TYR1        0.0534
      6 CG        -10.7230    8.7020    3.0390 C.ar    1  TYR1       -0.0201
      7 CD1       -10.5470    7.6670    2.1530 C.ar    1  TYR1       -0.0009
      8 CD2       -11.2980    9.8920    2.5630 C.ar    1  TYR1       -0.0009
      9 CE1       -10.9030    7.7900    0.8150 C.ar    1  TYR1        0.0417
     10 CE2       -11.6800   10.0270    1.2090 C.ar    1  TYR1        0.0417
     11 CZ        -11.4730    8.9600    0.3520 C.ar    1  TYR1        0.1957
     12 OH        -11.8120    9.0100   -0.9820 O.3     1  TYR1       -0.2866
     13 N         -13.7170   22.1360    3.7390 N.3     1  VAL1       -0.1231
     14 CA        -13.2920   21.4800    2.5150 C.3     1  VAL1        0.1692
     15 C         -11.9290   22.0660    2.2070 C.2     1  VAL1        0.2592
     16 O         -11.8150   23.2280    1.8140 O.2     1  VAL1       -0.2718
     17 CB        -14.2990   21.6690    1.3460 C.3     1  VAL1        0.0266
     18 CG1       -13.6410   21.3730   -0.0120 C.3     1  VAL1        0.0020
     19 CG2       -15.5080   20.7660    1.5430 C.3     1  VAL1        0.0020
     20 N         -10.8920   21.2710    2.4410 N.am    2  ILE2       -0.1966
     21 CA         -9.5330   21.6890    2.1530 C.3     2  ILE2        0.1727
     22 C          -9.1240   21.1760    0.7730 C.2     2  ILE2        0.2616
     23 O          -9.0300   19.9630    0.5440 O.2     2  ILE2       -0.2715
     24 CB         -8.5540   21.2470    3.2640 C.3     2  ILE2        0.0290
     25 CG1        -9.1740   21.5410    4.6350 C.3     2  ILE2        0.0022
     26 CG2        -7.2010   21.9450    3.1000 C.3     2  ILE2        0.0023
     27 CD1        -8.4170   20.9840    5.8000 C.3     2  ILE2        0.0001
     28 N          -8.9190   22.1240   -0.1420 N.am    3  GLU3       -0.1963
     29 CA         -8.5380   21.8470   -1.5200 C.3     3  GLU3        0.1731
     30 C          -7.1880   21.1540   -1.5650 C.2     3  GLU3        0.2617
     31 O          -6.4120   21.2200   -0.6080 O.2     3  GLU3       -0.2715
     32 CB         -8.4660   23.1410   -2.3490 C.3     3  GLU3        0.0370
     33 CG         -9.8090   23.7930   -2.6890 C.3     3  GLU3        0.0440
     34 CD        -10.0480   25.1010   -1.9360 C.2     3  GLU3        0.0504
     35 OE1        -9.2210   26.0410   -2.0840 O.co2   3  GLU3       -0.5492
     36 OE2       -11.0720   25.1930   -1.2080 O.co2   3  GLU3       -0.5492
     37 N          -6.9020   20.5140   -2.6960 N.am    4  THR4       -0.1951
     38 CA         -5.7290   19.6670   -2.8160 C.3     4  THR4        0.1897
     39 C          -4.4700   20.5100   -2.8860 C.2     4  THR4        0.2313
     40 O          -4.4840   21.6060   -3.4360 O.2     4  THR4       -0.2863
     41 CB         -5.8320   18.7060   -4.0280 C.3     4  THR4        0.1794
     42 OG1        -5.3880   19.3660   -5.2100 O.3     4  THR4       -0.2208
     43 CG2        -7.2670   18.2290   -4.2360 C.3     4  THR4        0.0378
     44 N          -3.2630   17.1690    1.2180 N.3     1  ILE1       -0.1231
     45 CA         -4.4910   16.6780    0.5630 C.3     1  ILE1        0.1692
     46 C          -4.0790   16.2020   -0.8170 C.2     1  ILE1        0.2593
     47 O          -3.2990   16.8840   -1.4850 O.2     1  ILE1       -0.2718
     48 CB         -5.5850   17.7960    0.4660 C.3     1  ILE1        0.0266
     49 CG1        -5.8760   18.4100    1.8470 C.3     1  ILE1        0.0019
     50 CG2        -6.8820   17.2940   -0.1910 C.3     1  ILE1        0.0020
     51 CD1        -6.5240   17.4710    2.8710 C.3     1  ILE1        0.0001
     52 N          -4.5600   15.0380   -1.2500 N.am    2  SER2       -0.1938
     53 CA         -4.0030   14.4290   -2.4590 C.3     2  SER2        0.2055
     54 C          -5.0380   13.8660   -3.3890 C.2     2  SER2        0.2643
     55 O          -6.0310   13.2730   -2.9470 O.2     2  SER2       -0.2714
     56 CB         -3.0010   13.3310   -2.0870 C.3     2  SER2        0.2130
     57 OG         -2.6700   12.5120   -3.2070 O.3     2  SER2       -0.2179
     58 N          -4.7940   14.0340   -4.6810 N.am    3  GLU3       -0.1963
     59 CA         -5.6260   13.4320   -5.7150 C.3     3  GLU3        0.1731
     60 C          -4.8190   12.3980   -6.4560 C.2     3  GLU3        0.2617
     61 O          -5.3000   11.8470   -7.4580 O.2     3  GLU3       -0.2715
     62 CB         -6.0310   14.4630   -6.7660 C.3     3  GLU3        0.0370
     63 CG         -6.9130   15.6200   -6.3340 C.3     3  GLU3        0.0440
     64 CD         -7.0690   16.6560   -7.4720 C.2     3  GLU3        0.0504
     65 OE1        -7.2630   16.2400   -8.6370 O.co2   3  GLU3       -0.5492
     66 OE2        -6.9810   17.8790   -7.2020 O.co2   3  GLU3       -0.5492
     67 N          -3.5830   12.1620   -6.0080 N.am    4  THR4       -0.1937
     68 CA         -2.6930   11.2380   -6.7240 C.3     4  THR4        0.2028
     69 C          -2.5020    9.8850   -6.0290 C.2     4  THR4        0.2642
     70 O          -1.6260    9.1110   -6.4180 O.2     4  THR4       -0.2714
     71 CB         -1.2960   11.8710   -7.0230 C.3     4  THR4        0.1808
     72 OG1        -0.8190   12.5980   -5.8770 O.3     4  THR4       -0.2208
     73 CG2        -1.3820   12.8090   -8.1870 C.3     4  THR4        0.0379
     74 N          -3.3230    9.6010   -5.0260 N.am    5  ALA5       -0.1977
     75 CA         -3.0670    8.4650   -4.1420 C.3     5  ALA5        0.1597
     76 C          -3.4000    7.1510   -4.8140 C.2     5  ALA5        0.2287
     77 O          -4.5260    6.9590   -5.2720 O.2     5  ALA5       -0.2864
     78 CB         -3.8240    8.6150   -2.8150 C.3     5  ALA5        0.0319
     79 N          -5.0470    4.0780   -0.5220 N.3     1  VAL1       -0.1245
     80 CA         -5.6100    4.9360    0.5160 C.3     1  VAL1        0.1561
     81 C          -6.4010    4.1140    1.4930 C.2     1  VAL1        0.2260
     82 O          -7.1460    3.2480    1.0920 O.2     1  VAL1       -0.2867
     83 CB         -6.4160    6.1300   -0.0800 C.3     1  VAL1        0.0252
     84 CG1        -7.0040    5.7820   -1.4330 C.3     1  VAL1        0.0019
     85 CG2        -7.4780    6.6000    0.8550 C.3     1  VAL1        0.0019
     86 N         -11.4280    4.3410    3.4230 N.3     1  GLU1       -0.1245
     87 CA        -12.5860    4.5350    2.5430 C.3     1  GLU1        0.1565
     88 C         -13.5290    3.3530    2.6690 C.2     1  GLU1        0.2260
     89 O         -13.3710    2.3450    1.9680 O.2     1  GLU1       -0.2867
     90 CB        -12.1470    4.6770    1.0750 C.3     1  GLU1        0.0329
     91 CG        -10.9210    3.8320    0.6870 C.3     1  GLU1        0.0437
     92 CD        -10.7050    3.7020   -0.8150 C.2     1  GLU1        0.0504
     93 OE1       -11.2990    4.4820   -1.5890 O.co2   1  GLU1       -0.5492
     94 OE2        -9.9310    2.8070   -1.2210 O.co2   1  GLU1       -0.5492
     95 N         -17.4450    7.3860    1.6020 N.3     1  ARG1       -0.1231
     96 CA        -16.6520    8.5050    2.1330 C.3     1  ARG1        0.1694
     97 C         -16.0920    9.4220    1.0390 C.2     1  ARG1        0.2593
     98 O         -15.8760   10.6140    1.2620 O.2     1  ARG1       -0.2718
     99 CB        -15.5250    7.9870    3.0260 C.3     1  ARG1        0.0321
    100 CG        -15.9830    7.5800    4.4180 C.3     1  ARG1        0.0489
    101 CD        -14.8130    7.3530    5.3400 C.3     1  ARG1        0.2205
    102 NE        -15.2270    6.7650    6.6080 N.pl3   1  ARG1       -0.0865
    103 CZ        -14.3940    6.3480    7.5600 C.cat   1  ARG1        0.5346
    104 NH1       -13.0780    6.4480    7.4040 N.pl3   1  ARG1        0.1354
    105 NH2       -14.8800    5.8300    8.6820 N.pl3   1  ARG1        0.1354
    106 N         -15.8790    8.8460   -0.1400 N.am    2  SER2       -0.1938
    107 CA        -15.3840    9.5620   -1.3120 C.3     2  SER2        0.2055
    108 C         -16.4620   10.4260   -1.9660 C.2     2  SER2        0.2643
    109 O         -16.2910   10.8760   -3.1080 O.2     2  SER2       -0.2714
    110 CB        -14.8640    8.5570   -2.3420 C.3     2  SER2        0.2130
    111 OG        -15.9070    7.6910   -2.7610 O.3     2  SER2       -0.2179
    112 N         -17.5770   10.6300   -1.2580 N.am    3  GLN3       -0.1963
    113 CA        -18.6680   11.4880   -1.7350 C.3     3  GLN3        0.1733
    114 C         -19.1320   12.4850   -0.6770 C.2     3  GLN3        0.2616
    115 O         -19.7060   13.5190   -1.0190 O.2     3  GLN3       -0.2715
    116 CB        -19.8350   10.6580   -2.2770 C.3     3  GLN3        0.0408
    117 CG        -19.5900   10.1180   -3.6880 C.3     3  GLN3        0.0908
    118 CD        -20.5570    9.0180   -4.0820 C.2     3  GLN3        0.2608
    119 OE1       -20.1440    7.9230   -4.4690 O.2     3  GLN3       -0.2717
    120 NE2       -21.8510    9.2990   -3.9830 N.am    3  GLN3       -0.0878
    121 N         -18.8820   12.1860    0.5980 N.am    4  ARG4       -0.1963
    122 CA        -19.0740   13.1730    1.6690 C.3     4  ARG4        0.1729
    123 C         -17.9510   14.2080    1.6090 C.2     4  ARG4        0.2616
    124 O         -16.8540   13.9030    1.1420 O.2     4  ARG4       -0.2715
    125 CB        -19.0940   12.5030    3.0490 C.3     4  ARG4        0.0348
    126 CG        -20.4720   12.1360    3.5850 C.3     4  ARG4        0.0492
    127 CD        -20.9400   10.7680    3.0930 C.3     4  ARG4        0.2205
    128 NE        -20.3650    9.5910    3.7710 N.pl3   4  ARG4       -0.0865
    129 CZ        -19.7800    9.5650    4.9710 C.cat   4  ARG4        0.5346
    130 NH2       -19.6460   10.6610    5.7120 N.pl3   4  ARG4        0.1354
    131 NH1       -19.3200    8.4110    5.4390 N.pl3   4  ARG4        0.1354
    132 N         -18.2210   15.4120    2.1030 N.am    5  ARG5       -0.1963
    133 CA        -17.3170   16.5530    1.9340 C.3     5  ARG5        0.1729
    134 C         -16.3530   16.7600    3.0990 C.2     5  ARG5        0.2616
    135 O         -15.3050   17.3970    2.9360 O.2     5  ARG5       -0.2715
    136 CB        -18.1250   17.8410    1.7300 C.3     5  ARG5        0.0348
    137 CG        -18.8380   17.9730    0.3810 C.3     5  ARG5        0.0492
    138 CD        -19.6610   19.2730    0.3040 C.3     5  ARG5        0.2205
    139 NE        -20.5050   19.4570    1.4920 N.pl3   5  ARG5       -0.0865
    140 CZ        -21.3880   20.4420    1.6600 C.cat   5  ARG5        0.5346
    141 NH2       -22.0950   20.5120    2.7800 N.pl3   5  ARG5        0.1354
    142 NH1       -21.5730   21.3490    0.7090 N.pl3   5  ARG5        0.1354
    143 N         -16.7190   16.2610    4.2770 N.am    6  GLU6       -0.1963
    144 CA        -15.8410   16.3340    5.4460 C.3     6  GLU6        0.1731
    145 C         -14.6220   15.3950    5.3430 C.2     6  GLU6        0.2616
    146 O         -13.6310   15.5740    6.0660 O.2     6  GLU6       -0.2715
    147 CB        -16.6370   16.0990    6.7510 C.3     6  GLU6        0.0370
    148 CG        -17.1090   14.6560    7.0470 C.3     6  GLU6        0.0440
    149 CD        -18.3430   14.2180    6.2430 C.2     6  GLU6        0.0504
    150 OE1       -18.6400   14.8560    5.2060 O.co2   6  GLU6       -0.5492
    151 OE2       -19.0030   13.2150    6.6470 O.co2   6  GLU6       -0.5492
    152 N         -14.6970   14.4230    4.4300 N.am    7  TRP7       -0.1960
    153 CA        -13.6700   13.3800    4.2810 C.3     7  TRP7        0.1768
    154 C         -12.6270   13.7010    3.2140 C.2     7  TRP7        0.2619
    155 O         -12.9560   13.8820    2.0360 O.2     7  TRP7       -0.2715
    156 CB        -14.3200   12.0320    3.9440 C.3     7  TRP7        0.0553
    157 CG        -14.9250   11.3300    5.1140 C.2     7  TRP7       -0.0136
    158 CD1       -16.2510   11.0630    5.3160 C.2     7  TRP7        0.0907
    159 CD2       -14.2300   10.7940    6.2480 C.3     7  TRP7        0.0819
    160 NE1       -16.4250   10.3940    6.5060 N.2     7  TRP7       -0.2482
    161 CE2       -15.2010   10.2210    7.0990 C.2     7  TRP7        0.0665
    162 CE3       -12.8820   10.7460    6.6270 C.2     7  TRP7       -0.0164
    163 CZ2       -14.8660    9.6090    8.3100 C.2     7  TRP7        0.0153
    164 CZ3       -12.5500   10.1360    7.8260 C.2     7  TRP7       -0.0038
    165 CH2       -13.5370    9.5760    8.6560 C.2     7  TRP7        0.0009
    166 N         -11.3650   13.7280    3.6290 N.am    8  HIS8       -0.1959
    167 CA        -10.2560   14.0220    2.7160 C.3     8  HIS8        0.1787
    168 C          -9.2670   12.8630    2.5680 C.2     8  HIS8        0.2620
    169 O          -8.9900   12.1310    3.5310 O.2     8  HIS8       -0.2715
    170 CB         -9.5040   15.2680    3.1900 C.3     8  HIS8        0.0785
    171 CG        -10.3000   16.5270    3.0610 C.ar    8  HIS8        0.0821
    172 ND1       -11.4420   16.7660    3.8000 N.ar    8  HIS8       -0.2267
    173 CD2       -10.1280   17.6080    2.2690 C.ar    8  HIS8        0.1154
    174 CE1       -11.9380   17.9420    3.4650 C.ar    8  HIS8        0.1986
    175 NE2       -11.1590   18.4720    2.5400 N.ar    8  HIS8       -0.2212
    176 N          -8.7370   12.7290    1.3530 N.am    9  VAL9       -0.1963
    177 CA         -7.6190   11.8450    1.0730 C.3     9  VAL9        0.1727
    178 C          -6.3540   12.6080    1.4250 C.2     9  VAL9        0.2616
    179 O          -6.0210   13.5840    0.7500 O.2     9  VAL9       -0.2715
    180 CB         -7.5820   11.4270   -0.4050 C.3     9  VAL9        0.0290
    181 CG2        -6.4310   10.4550   -0.6400 C.3     9  VAL9        0.0023
    182 CG1        -8.9080   10.7680   -0.8200 C.3     9  VAL9        0.0023
    183 N          -5.6840   12.1820    2.5010 N.am   10  VAL10      -0.1977
    184 CA         -4.4690   12.8290    2.9870 C.3    10  VAL10       0.1596
    185 C          -3.2580   11.9590    2.6820 C.2    10  VAL10       0.2287
    186 O          -3.1780   10.8100    3.1440 O.2    10  VAL10      -0.2864
    187 CB         -4.5260   13.0980    4.5110 C.3    10  VAL10       0.0276
    188 CG2        -3.1930   13.6130    5.0120 C.3    10  VAL10       0.0022
    189 CG1        -5.5690   14.1290    4.8160 C.3    10  VAL10       0.0022
@<TRIPOS>UNITY_ATOM_ATTR
35 1
charge -1
65 1
charge -1
93 1
charge -1
150 1
charge -1
@<TRIPOS>BOND
     1     1     2    1
     2     2     5    1
     3     2     3    1
     4     3     4    2
     5     5     6    1
     6     6     7   ar
     7     6     8   ar
     8     7     9   ar
     9     8    10   ar
    10     9    11   ar
    11    10    11   ar
    12    11    12    1
    13    13    14    1
    14    14    17    1
    15    14    15    1
    16    15    16    2
    17    15    20   am
    18    17    18    1
    19    17    19    1
    20    20    21    1
    21    21    22    1
    22    21    24    1
    23    22    28   am
    24    22    23    2
    25    24    26    1
    26    24    25    1
    27    25    27    1
    28    28    29    1
    29    29    32    1
    30    29    30    1
    31    30    37   am
    32    30    31    2
    33    32    33    1
    34    33    34    1
    35    34    35   ar
    36    34    36   ar
    37    37    38    1
    38    38    41    1
    39    38    39    1
    40    39    40    2
    41    41    42    1
    42    41    43    1
    43    44    45    1
    44    45    46    1
    45    45    48    1
    46    46    47    2
    47    46    52   am
    48    48    50    1
    49    48    49    1
    50    49    51    1
    51    52    53    1
    52    53    54    1
    53    53    56    1
    54    54    58   am
    55    54    55    2
    56    56    57    1
    57    58    59    1
    58    59    62    1
    59    59    60    1
    60    60    61    2
    61    60    67   am
    62    62    63    1
    63    63    64    1
    64    64    65   ar
    65    64    66   ar
    66    67    68    1
    67    68    71    1
    68    68    69    1
    69    69    70    2
    70    69    74   am
    71    71    73    1
    72    71    72    1
    73    74    75    1
    74    75    76    1
    75    75    78    1
    76    76    77    2
    77    79    80    1
    78    80    83    1
    79    80    81    1
    80    81    82    2
    81    83    84    1
    82    83    85    1
    83    86    87    1
    84    87    90    1
    85    87    88    1
    86    88    89    2
    87    90    91    1
    88    91    92    1
    89    92    93   ar
    90    92    94   ar
    91    95    96    1
    92    96    97    1
    93    96    99    1
    94    97   106   am
    95    97    98    2
    96    99   100    1
    97   100   101    1
    98   101   102    1
    99   102   103    2
   100   103   104    1
   101   103   105    1
   102   106   107    1
   103   107   110    1
   104   107   108    1
   105   108   109    2
   106   108   112   am
   107   110   111    1
   108   112   113    1
   109   113   116    1
   110   113   114    1
   111   114   115    2
   112   114   121   am
   113   116   117    1
   114   117   118    1
   115   118   119    2
   116   118   120   am
   117   121   122    1
   118   122   123    1
   119   122   125    1
   120   123   124    2
   121   123   132   am
   122   125   126    1
   123   126   127    1
   124   127   128    1
   125   128   129    2
   126   129   131    1
   127   129   130    1
   128   132   133    1
   129   133   136    1
   130   133   134    1
   131   134   135    2
   132   134   143   am
   133   136   137    1
   134   137   138    1
   135   138   139    1
   136   139   140    2
   137   140   142    1
   138   140   141    1
   139   143   144    1
   140   144   145    1
   141   144   147    1
   142   145   152   am
   143   145   146    2
   144   147   148    1
   145   148   149    1
   146   149   150   ar
   147   149   151   ar
   148   152   153    1
   149   153   154    1
   150   153   156    1
   151   154   155    2
   152   154   166   am
   153   156   157    1
   154   157   158    2
   155   157   159    1
   156   158   160    1
   157   159   162    1
   158   159   161    1
   159   160   161    2
   160   161   163    1
   161   162   164    2
   162   163   165    2
   163   164   165    1
   164   166   167    1
   165   167   168    1
   166   167   170    1
   167   168   176   am
   168   168   169    2
   169   170   171    1
   170   171   173   ar
   171   171   172   ar
   172   172   174   ar
   173   173   175   ar
   174   174   175   ar
   175   176   177    1
   176   177   180    1
   177   177   178    1
   178   178   179    2
   179   178   183   am
   180   180   182    1
   181   180   181    1
   182   183   184    1
   183   184   185    1
   184   184   187    1
   185   185   186    2
   186   187   189    1
   187   187   188    1
