@<TRIPOS>MOLECULE
./2w1a/protein.pdb
 216 208 0 0 0
SMALL
GASTEIGER

@<TRIPOS>ATOM
      1 N          75.0550  137.4150    8.5030 N.3     1  ARG1       -0.1231
      2 CA         73.6110  137.3100    8.2500 C.3     1  ARG1        0.1694
      3 C          72.8860  136.5010    9.3240 C.2     1  ARG1        0.2591
      4 O          71.7990  136.8800    9.7650 O.2     1  ARG1       -0.2718
      5 CB         73.3600  136.6630    6.8870 C.3     1  ARG1        0.0321
      6 CG         71.9970  136.9610    6.3090 C.3     1  ARG1        0.0489
      7 CD         71.6890  136.0710    5.1220 C.3     1  ARG1        0.2205
      8 NE         70.3350  136.2960    4.6320 N.pl3   1  ARG1       -0.0865
      9 CZ         69.2370  135.8010    5.2000 C.cat   1  ARG1        0.5346
     10 NH2        69.3040  135.0600    6.3060 N.pl3   1  ARG1        0.1354
     11 NH1        68.0550  136.0740    4.6620 N.pl3   1  ARG1        0.1354
     12 N          73.4960  135.3890    9.7290 N.am    2  ALA2       -0.1980
     13 CA         72.9550  134.5290   10.7740 C.3     2  ALA2        0.1597
     14 C          72.8030  135.2540   12.1110 C.2     2  ALA2        0.2287
     15 O          71.8250  135.0280   12.8180 O.2     2  ALA2       -0.2864
     16 CB         73.8250  133.2850   10.9420 C.3     2  ALA2        0.0319
     17 N          72.4360  138.5880   12.4600 N.3     1  VAL1       -0.1231
     18 CA         71.4230  139.6270   12.2610 C.3     1  VAL1        0.1692
     19 C          70.0140  139.0280   12.3110 C.2     1  VAL1        0.2593
     20 O          69.1170  139.5780   12.9530 O.2     1  VAL1       -0.2718
     21 CB         71.6370  140.3730   10.9140 C.3     1  VAL1        0.0266
     22 CG1        70.5150  141.3710   10.6540 C.3     1  VAL1        0.0020
     23 CG2        72.9770  141.0810   10.9060 C.3     1  VAL1        0.0020
     24 N          69.8400  137.8950   11.6340 N.am    2  SER2       -0.1938
     25 CA         68.5870  137.1380   11.6390 C.3     2  SER2        0.2055
     26 C          68.1780  136.7330   13.0610 C.2     2  SER2        0.2643
     27 O          67.0280  136.9270   13.4770 O.2     2  SER2       -0.2714
     28 CB         68.7470  135.8900   10.7680 C.3     2  SER2        0.2130
     29 OG         67.5580  135.1220   10.7240 O.3     2  SER2       -0.2179
     30 N          69.1390  136.1830   13.7970 N.am    3  LYS3       -0.1963
     31 CA         68.9390  135.7720   15.1890 C.3     3  LYS3        0.1728
     32 C          68.4770  136.9460   16.0570 C.2     3  LYS3        0.2616
     33 O          67.5900  136.7870   16.8950 O.2     3  LYS3       -0.2715
     34 CB         70.2420  135.1850   15.7520 C.3     3  LYS3        0.0311
     35 CG         70.0680  134.0910   16.7970 C.3     3  LYS3        0.0038
     36 CD         71.2910  133.1760   16.8320 C.3     3  LYS3        0.0206
     37 CE         71.3090  132.2040   15.6450 C.3     3  LYS3        0.1093
     38 NZ         72.6540  131.5870   15.4370 N.3     3  LYS3       -0.1314
     39 N          69.0820  138.1160   15.8410 N.am    4  ALA4       -0.1963
     40 CA         68.7560  139.3270   16.5950 C.3     4  ALA4        0.1728
     41 C          67.3530  139.8610   16.2860 C.2     4  ALA4        0.2616
     42 O          66.6810  140.3940   17.1750 O.2     4  ALA4       -0.2715
     43 CB         69.8030  140.4110   16.3320 C.3     4  ALA4        0.0334
     44 N          66.9210  139.7320   15.0330 N.am    5  ILE5       -0.1963
     45 CA         65.5700  140.1460   14.6310 C.3     5  ILE5        0.1727
     46 C          64.5160  139.2530   15.2880 C.2     5  ILE5        0.2617
     47 O          63.5130  139.7440   15.8100 O.2     5  ILE5       -0.2715
     48 CB         65.3750  140.0870   13.0980 C.3     5  ILE5        0.0290
     49 CG1        66.2880  141.0930   12.3880 C.3     5  ILE5        0.0022
     50 CG2        63.9200  140.3650   12.7380 C.3     5  ILE5        0.0023
     51 CD1        66.4960  140.8050   10.9120 C.3     5  ILE5        0.0001
     52 N          64.7580  137.9430   15.2540 N.am    6  GLY6       -0.1940
     53 CA         63.8690  136.9640   15.8720 C.3     6  GLY6        0.2014
     54 C          63.8070  137.0830   17.3820 C.2     6  GLY6        0.2638
     55 O          62.7590  136.8600   17.9780 O.2     6  GLY6       -0.2714
     56 N          64.9300  137.4330   18.0020 N.am    7  LYS7       -0.1977
     57 CA         64.9870  137.6480   19.4470 C.3     7  LYS7        0.1596
     58 C          64.1880  138.8960   19.8580 C.2     7  LYS7        0.2287
     59 O          63.4190  138.8610   20.8270 O.2     7  LYS7       -0.2864
     60 CB         66.4450  137.7730   19.9020 C.3     7  LYS7        0.0298
     61 CG         66.6250  137.7470   21.4060 C.3     7  LYS7        0.0038
     62 CD         68.0690  137.4770   21.7860 C.3     7  LYS7        0.0206
     63 CE         68.2990  137.6420   23.2830 C.3     7  LYS7        0.1093
     64 NZ         67.4430  136.7190   24.0830 N.3     7  LYS7       -0.1314
     65 N          61.7070  140.3310   18.0830 N.3     1  ARG1       -0.1231
     66 CA         60.2830  140.1060   17.8060 C.3     1  ARG1        0.1694
     67 C          59.6350  139.1920   18.8340 C.2     1  ARG1        0.2591
     68 O          58.5400  139.4810   19.3140 O.2     1  ARG1       -0.2718
     69 CB         60.0600  139.5240   16.4080 C.3     1  ARG1        0.0321
     70 CG         58.5990  139.1470   16.1400 C.3     1  ARG1        0.0489
     71 CD         58.3090  138.8520   14.6740 C.3     1  ARG1        0.2205
     72 NE         59.1790  137.8070   14.1290 N.pl3   1  ARG1       -0.0865
     73 CZ         60.2390  138.0230   13.3510 C.cat   1  ARG1        0.5346
     74 NH2        60.5880  139.2470   12.9780 N.pl3   1  ARG1        0.1354
     75 NH1        60.9540  136.9960   12.9260 N.pl3   1  ARG1        0.1354
     76 N          60.3000  138.0860   19.1560 N.am    2  MET2       -0.1979
     77 CA         59.7730  137.1400   20.1410 C.3     2  MET2        0.1605
     78 C          59.7050  137.7580   21.5410 C.2     2  MET2        0.2287
     79 O          58.8110  137.4210   22.3260 O.2     2  MET2       -0.2864
     80 CB         60.6000  135.8500   20.1640 C.3     2  MET2        0.0413
     81 CG         60.4780  135.0100   18.8930 C.3     2  MET2        0.0598
     82 SD         60.6540  133.2400   19.1730 S.3     2  MET2       -0.1393
     83 CE         59.0040  132.8290   19.7570 C.3     2  MET2        0.0692
     84 N          55.7500  136.2350   16.7170 N.3     1  THR1       -0.1203
     85 CA         56.0250  134.8620   16.2720 C.3     1  THR1        0.1994
     86 C          57.5150  134.6160   16.0070 C.2     1  THR1        0.2618
     87 O          58.3110  135.5480   15.8640 O.2     1  THR1       -0.2717
     88 CB         55.2140  134.4720   15.0030 C.3     1  THR1        0.1784
     89 OG1        55.6410  135.2580   13.8850 O.3     1  THR1       -0.2211
     90 CG2        53.7150  134.6650   15.2280 C.3     1  THR1        0.0376
     91 N          57.8720  133.3400   15.9510 N.am    2  ARG2       -0.1965
     92 CA         59.2570  132.9100   15.7330 C.3     2  ARG2        0.1729
     93 C          59.6870  133.2060   14.2950 C.2     2  ARG2        0.2616
     94 O          60.7330  133.8240   14.0520 O.2     2  ARG2       -0.2715
     95 CB         59.3730  131.4030   16.0300 C.3     2  ARG2        0.0348
     96 CG         60.7120  130.9340   16.5850 C.3     2  ARG2        0.0492
     97 CD         61.5700  130.2110   15.5740 C.3     2  ARG2        0.2205
     98 NE         62.1680  129.0050   16.1500 N.pl3   2  ARG2       -0.0865
     99 CZ         63.1340  128.9850   17.0730 C.cat   2  ARG2        0.5346
    100 NH1        63.5960  127.8120   17.5090 N.pl3   2  ARG2        0.1354
    101 NH2        63.6440  130.1170   17.5720 N.pl3   2  ARG2        0.1354
    102 N          58.8400  132.7680   13.3650 N.am    3  LEU3       -0.1963
    103 CA         59.0570  132.8890   11.9310 C.3     3  LEU3        0.1728
    104 C          57.9700  133.7770   11.3350 C.2     3  LEU3        0.2616
    105 O          56.8900  133.9110   11.9130 O.2     3  LEU3       -0.2715
    106 CB         58.9880  131.5050   11.2760 C.3     3  LEU3        0.0311
    107 CG         59.7460  130.3670   11.9620 C.3     3  LEU3        0.0022
    108 CD1        59.4170  129.0410   11.2830 C.3     3  LEU3        0.0001
    109 CD2        61.2540  130.6150   11.9680 C.3     3  LEU3        0.0001
    110 N          58.2650  134.3790   10.1830 N.am    4  VAL4       -0.1977
    111 CA         57.3050  135.2100    9.4550 C.3     4  VAL4        0.1596
    112 C          57.2420  134.7410    8.0000 C.2     4  VAL4        0.2287
    113 O          58.1490  134.9980    7.2110 O.2     4  VAL4       -0.2864
    114 CB         57.6700  136.7060    9.5380 C.3     4  VAL4        0.0276
    115 CG1        56.6130  137.5530    8.8400 C.3     4  VAL4        0.0022
    116 CG2        57.8130  137.1350   10.9940 C.3     4  VAL4        0.0022
    117 N          55.6150  135.3250    5.0620 N.3     1  SER1       -0.1202
    118 CA         55.6960  136.1860    3.8770 C.3     1  SER1        0.2020
    119 C          57.0750  136.8200    3.6960 C.2     1  SER1        0.2619
    120 O          57.4640  137.1470    2.5790 O.2     1  SER1       -0.2717
    121 CB         54.6330  137.2890    3.9380 C.3     1  SER1        0.2103
    122 OG         54.9130  138.2090    4.9790 O.3     1  SER1       -0.2182
    123 N          57.8000  137.0050    4.7940 N.am    2  ARG2       -0.1965
    124 CA         59.1650  137.5070    4.7350 C.3     2  ARG2        0.1729
    125 C          60.1280  136.4470    4.1740 C.2     2  ARG2        0.2616
    126 O          60.9490  136.7450    3.3040 O.2     2  ARG2       -0.2715
    127 CB         59.6220  137.9720    6.1200 C.3     2  ARG2        0.0348
    128 CG         61.0570  138.5010    6.1740 C.3     2  ARG2        0.0492
    129 CD         61.3280  139.5870    5.1350 C.3     2  ARG2        0.2205
    130 NE         62.6570  140.1750    5.3180 N.pl3   2  ARG2       -0.0865
    131 CZ         63.0570  141.3320    4.7940 C.cat   2  ARG2        0.5346
    132 NH1        62.2390  142.0650    4.0470 N.pl3   2  ARG2        0.1354
    133 NH2        64.2860  141.7690    5.0320 N.pl3   2  ARG2        0.1354
    134 N          60.0210  135.2180    4.6730 N.am    3  GLU3       -0.1977
    135 CA         60.8160  134.0980    4.1480 C.3     3  GLU3        0.1600
    136 C          60.5680  133.8460    2.6540 C.2     3  GLU3        0.2287
    137 O          61.4690  133.4100    1.9430 O.2     3  GLU3       -0.2864
    138 CB         60.5690  132.8210    4.9600 C.3     3  GLU3        0.0356
    139 CG         61.1040  132.9240    6.3870 C.3     3  GLU3        0.0439
    140 CD         61.2690  131.5850    7.1030 C.2     3  GLU3        0.0504
    141 OE1        61.0270  130.5160    6.4970 O.co2   3  GLU3       -0.5492
    142 OE2        61.6530  131.6140    8.2900 O.co2   3  GLU3       -0.5492
    143 N          59.9390  136.3620    0.5180 N.3     1  LYS1       -0.1231
    144 CA         60.7130  137.4420   -0.1200 C.3     1  LYS1        0.1693
    145 C          62.1910  137.0770   -0.2110 C.2     1  LYS1        0.2591
    146 O          62.8560  137.3800   -1.2050 O.2     1  LYS1       -0.2718
    147 CB         60.5750  138.7630    0.6480 C.3     1  LYS1        0.0285
    148 CG         59.1790  139.3570    0.6470 C.3     1  LYS1        0.0035
    149 CD         58.9950  140.3780    1.7850 C.3     1  LYS1        0.0206
    150 CE         57.5190  140.5380    2.2010 C.3     1  LYS1        0.1093
    151 NZ         57.3760  140.8820    3.6530 N.3     1  LYS1       -0.1314
    152 N          62.6910  136.4270    0.8380 N.am    2  VAL2       -0.1980
    153 CA         64.0860  135.9900    0.9070 C.3     2  VAL2        0.1595
    154 C          64.3670  134.8810   -0.1090 C.2     2  VAL2        0.2287
    155 O          65.4200  134.8760   -0.7440 O.2     2  VAL2       -0.2864
    156 CB         64.4600  135.5400    2.3460 C.3     2  VAL2        0.0276
    157 CG1        65.8730  134.9740    2.3970 C.3     2  VAL2        0.0022
    158 CG2        64.3120  136.7140    3.3200 C.3     2  VAL2        0.0022
    159 N          64.4160  136.5620   -3.9060 N.3     1  ARG1       -0.1231
    160 CA         65.5770  137.3440   -4.3450 C.3     1  ARG1        0.1694
    161 C          66.8680  136.5430   -4.5580 C.2     1  ARG1        0.2592
    162 O          67.9370  137.1320   -4.7370 O.2     1  ARG1       -0.2718
    163 CB         65.8300  138.5260   -3.4090 C.3     1  ARG1        0.0321
    164 CG         66.2600  138.2090   -1.9850 C.3     1  ARG1        0.0489
    165 CD         65.8620  139.3990   -1.1400 C.3     1  ARG1        0.2205
    166 NE         66.2190  139.3180    0.2700 N.pl3   1  ARG1       -0.0865
    167 CZ         65.7980  140.1860    1.1900 C.cat   1  ARG1        0.5346
    168 NH1        64.9980  141.1950    0.8520 N.pl3   1  ARG1        0.1354
    169 NH2        66.1730  140.0480    2.4570 N.pl3   1  ARG1        0.1354
    170 N          66.7660  135.2160   -4.5450 N.am    2  TYR2       -0.1976
    171 CA         67.8530  134.3410   -4.9890 C.3     2  TYR2        0.1639
    172 C          67.4790  133.5670   -6.2550 C.2     2  TYR2        0.2290
    173 O          68.2400  132.7130   -6.7000 O.2     2  TYR2       -0.2864
    174 CB         68.2600  133.3790   -3.8660 C.3     2  TYR2        0.0560
    175 CG         69.1340  134.0290   -2.8130 C.ar    2  TYR2       -0.0198
    176 CD1        70.4760  134.2850   -3.0680 C.ar    2  TYR2       -0.0009
    177 CD2        68.6170  134.3970   -1.5660 C.ar    2  TYR2       -0.0009
    178 CE1        71.2900  134.8810   -2.1200 C.ar    2  TYR2        0.0417
    179 CE2        69.4250  134.9960   -0.6020 C.ar    2  TYR2        0.0417
    180 CZ         70.7650  135.2340   -0.8910 C.ar    2  TYR2        0.1957
    181 OH         71.5910  135.8230    0.0370 O.3     2  TYR2       -0.2866
    182 N          70.0600  129.5970    4.1150 N.3     1  LEU1       -0.1231
    183 CA         70.3690  130.8080    4.8850 C.3     1  LEU1        0.1693
    184 C          69.3070  131.1110    5.9500 C.2     1  LEU1        0.2591
    185 O          69.6280  131.6390    7.0130 O.2     1  LEU1       -0.2718
    186 CB         70.5390  132.0190    3.9570 C.3     1  LEU1        0.0284
    187 CG         71.7350  132.0280    2.9990 C.3     1  LEU1        0.0019
    188 CD1        71.7600  133.3170    2.1880 C.3     1  LEU1        0.0001
    189 CD2        73.0390  131.8370    3.7470 C.3     1  LEU1        0.0001
    190 N          68.0480  130.7950    5.6680 N.am    2  LEU2       -0.1980
    191 CA         66.9990  130.9060    6.6750 C.3     2  LEU2        0.1596
    192 C          67.2560  129.9280    7.8310 C.2     2  LEU2        0.2287
    193 O          67.1080  130.2940    8.9950 O.2     2  LEU2       -0.2864
    194 CB         65.6090  130.6730    6.0590 C.3     2  LEU2        0.0297
    195 CG         65.1410  131.7210    5.0360 C.3     2  LEU2        0.0022
    196 CD1        63.9400  131.2160    4.2270 C.3     2  LEU2        0.0001
    197 CD2        64.8150  133.0330    5.7050 C.3     2  LEU2        0.0001
    198 N          69.8310  131.2200   10.1650 N.3     1  GLY1       -0.1210
    199 CA         69.3440  132.3690   10.9290 C.3     1  GLY1        0.1956
    200 C          68.3230  132.0440   12.0100 C.2     1  GLY1        0.2612
    201 O          68.5450  132.3600   13.1810 O.2     1  GLY1       -0.2717
    202 N          67.2070  131.4210   11.6230 N.am    2  ARG2       -0.1965
    203 CA         66.1390  131.0760   12.5790 C.3     2  ARG2        0.1729
    204 C          66.1190  129.6080   13.0330 C.2     2  ARG2        0.2616
    205 O          65.2910  129.2290   13.8710 O.2     2  ARG2       -0.2715
    206 CB         64.7520  131.5130   12.0650 C.3     2  ARG2        0.0348
    207 CG         64.3960  131.1820   10.6140 C.3     2  ARG2        0.0492
    208 CD         64.1890  129.6920   10.3600 C.3     2  ARG2        0.2205
    209 NE         63.5180  129.4630    9.0780 N.pl3   2  ARG2       -0.0865
    210 CZ         63.5770  128.3330    8.3710 C.cat   2  ARG2        0.5346
    211 NH2        64.2970  127.2970    8.7820 N.pl3   2  ARG2        0.1354
    212 NH1        62.9190  128.2480    7.2200 N.pl3   2  ARG2        0.1354
    213 N          67.0300  128.7910   12.5050 N.am    3  GLY3       -0.1955
    214 CA         67.1650  127.3980   12.9420 C.3     3  GLY3        0.1869
    215 C          66.2320  126.4350   12.2260 C.2     3  GLY3        0.2309
    216 O          65.4590  126.8330   11.3610 O.2     3  GLY3       -0.2863
@<TRIPOS>UNITY_ATOM_ATTR
141 1
charge -1
@<TRIPOS>BOND
     1     1     2    1
     2     2     5    1
     3     2     3    1
     4     3    12   am
     5     3     4    2
     6     5     6    1
     7     6     7    1
     8     7     8    1
     9     8     9    2
    10     9    11    1
    11     9    10    1
    12    12    13    1
    13    13    16    1
    14    13    14    1
    15    14    15    2
    16    17    18    1
    17    18    21    1
    18    18    19    1
    19    19    24   am
    20    19    20    2
    21    21    22    1
    22    21    23    1
    23    24    25    1
    24    25    28    1
    25    25    26    1
    26    26    27    2
    27    26    30   am
    28    28    29    1
    29    30    31    1
    30    31    34    1
    31    31    32    1
    32    32    39   am
    33    32    33    2
    34    34    35    1
    35    35    36    1
    36    36    37    1
    37    37    38    1
    38    39    40    1
    39    40    41    1
    40    40    43    1
    41    41    44   am
    42    41    42    2
    43    44    45    1
    44    45    48    1
    45    45    46    1
    46    46    52   am
    47    46    47    2
    48    48    49    1
    49    48    50    1
    50    49    51    1
    51    52    53    1
    52    53    54    1
    53    54    55    2
    54    54    56   am
    55    56    57    1
    56    57    58    1
    57    57    60    1
    58    58    59    2
    59    60    61    1
    60    61    62    1
    61    62    63    1
    62    63    64    1
    63    65    66    1
    64    66    69    1
    65    66    67    1
    66    67    76   am
    67    67    68    2
    68    69    70    1
    69    70    71    1
    70    71    72    1
    71    72    73    2
    72    73    75    1
    73    73    74    1
    74    76    77    1
    75    77    80    1
    76    77    78    1
    77    78    79    2
    78    80    81    1
    79    81    82    1
    80    82    83    1
    81    84    85    1
    82    85    88    1
    83    85    86    1
    84    86    87    2
    85    86    91   am
    86    88    89    1
    87    88    90    1
    88    91    92    1
    89    92    93    1
    90    92    95    1
    91    93   102   am
    92    93    94    2
    93    95    96    1
    94    96    97    1
    95    97    98    1
    96    98    99    2
    97    99   100    1
    98    99   101    1
    99   102   103    1
   100   103   106    1
   101   103   104    1
   102   104   110   am
   103   104   105    2
   104   106   107    1
   105   107   108    1
   106   107   109    1
   107   110   111    1
   108   111   112    1
   109   111   114    1
   110   112   113    2
   111   114   115    1
   112   114   116    1
   113   117   118    1
   114   118   119    1
   115   118   121    1
   116   119   120    2
   117   119   123   am
   118   121   122    1
   119   123   124    1
   120   124   125    1
   121   124   127    1
   122   125   126    2
   123   125   134   am
   124   127   128    1
   125   128   129    1
   126   129   130    1
   127   130   131    2
   128   131   132    1
   129   131   133    1
   130   134   135    1
   131   135   136    1
   132   135   138    1
   133   136   137    2
   134   138   139    1
   135   139   140    1
   136   140   141   ar
   137   140   142   ar
   138   143   144    1
   139   144   145    1
   140   144   147    1
   141   145   146    2
   142   145   152   am
   143   147   148    1
   144   148   149    1
   145   149   150    1
   146   150   151    1
   147   152   153    1
   148   153   154    1
   149   153   156    1
   150   154   155    2
   151   156   157    1
   152   156   158    1
   153   159   160    1
   154   160   161    1
   155   160   163    1
   156   161   162    2
   157   161   170   am
   158   163   164    1
   159   164   165    1
   160   165   166    1
   161   166   167    2
   162   167   168    1
   163   167   169    1
   164   170   171    1
   165   171   172    1
   166   171   174    1
   167   172   173    2
   168   174   175    1
   169   175   176   ar
   170   175   177   ar
   171   176   178   ar
   172   177   179   ar
   173   178   180   ar
   174   179   180   ar
   175   180   181    1
   176   182   183    1
   177   183   186    1
   178   183   184    1
   179   184   190   am
   180   184   185    2
   181   186   187    1
   182   187   188    1
   183   187   189    1
   184   190   191    1
   185   191   194    1
   186   191   192    1
   187   192   193    2
   188   194   195    1
   189   195   196    1
   190   195   197    1
   191   198   199    1
   192   199   200    1
   193   200   202   am
   194   200   201    2
   195   202   203    1
   196   203   206    1
   197   203   204    1
   198   204   213   am
   199   204   205    2
   200   206   207    1
   201   207   208    1
   202   208   209    1
   203   209   210    2
   204   210   212    1
   205   210   211    1
   206   213   214    1
   207   214   215    1
   208   215   216    2
