@<TRIPOS>MOLECULE
./3kp5/protein.pdb
 144 136 0 0 0
SMALL
GASTEIGER

@<TRIPOS>ATOM
      1 N         -15.8860  -28.8430    2.6830 N.3     1  VAL1       -0.1231
      2 CA        -16.7190  -28.0980    3.6120 C.3     1  VAL1        0.1692
      3 C         -17.9030  -28.9790    4.0220 C.2     1  VAL1        0.2592
      4 O         -18.3200  -29.0130    5.1820 O.2     1  VAL1       -0.2718
      5 CB        -17.2460  -26.8220    2.9730 C.3     1  VAL1        0.0266
      6 CG2       -18.4750  -26.3370    3.7120 C.3     1  VAL1        0.0020
      7 CG1       -16.1780  -25.7840    3.0070 C.3     1  VAL1        0.0020
      8 N         -18.4400  -29.7040    3.0560 N.am    2  ASN2       -0.1960
      9 CA        -19.5420  -30.5730    3.3400 C.3     2  ASN2        0.1819
     10 C         -19.0800  -31.6910    4.2290 C.2     2  ASN2        0.2621
     11 O         -19.7680  -32.0520    5.1850 O.2     2  ASN2       -0.2715
     12 CB        -20.1250  -31.1180    2.0510 C.3     2  ASN2        0.1195
     13 CG        -21.0600  -30.1360    1.4040 C.2     2  ASN2        0.2630
     14 OD1       -21.5620  -29.2220    2.0610 O.2     2  ASN2       -0.2716
     15 ND2       -21.3170  -30.3240    0.1190 N.am    2  ASN2       -0.0877
     16 N         -17.9060  -32.2340    3.9400 N.am    3  THR3       -0.1951
     17 CA        -17.4110  -33.3210    4.7780 C.3     3  THR3        0.1897
     18 C         -17.3340  -32.8220    6.2130 C.2     3  THR3        0.2313
     19 O         -17.9330  -33.4170    7.1030 O.2     3  THR3       -0.2863
     20 CB        -15.9920  -33.8270    4.3850 C.3     3  THR3        0.1794
     21 OG1       -15.9540  -34.2550    3.0200 O.3     3  THR3       -0.2208
     22 CG2       -15.6220  -35.0010    5.2370 C.3     3  THR3        0.0378
     23 N         -18.6820  -30.2860    7.8900 N.3     1  THR1       -0.1203
     24 CA        -19.8620  -29.9610    8.6610 C.3     1  THR1        0.1994
     25 C         -20.5480  -31.2440    9.0650 C.2     1  THR1        0.2618
     26 O         -21.2610  -31.2940   10.0750 O.2     1  THR1       -0.2717
     27 CB        -20.8200  -29.1350    7.8560 C.3     1  THR1        0.1784
     28 OG1       -20.0870  -28.1370    7.1370 O.3     1  THR1       -0.2211
     29 CG2       -21.8210  -28.4700    8.7790 C.3     1  THR1        0.0376
     30 N         -20.3160  -32.2680    8.2450 N.am    2  ALA2       -0.1965
     31 CA        -20.8740  -33.5950    8.4320 C.3     2  ALA2        0.1728
     32 C         -20.3260  -34.2550    9.6890 C.2     2  ALA2        0.2616
     33 O         -21.0570  -34.9230   10.4250 O.2     2  ALA2       -0.2715
     34 CB        -20.5700  -34.4450    7.2250 C.3     2  ALA2        0.0334
     35 N         -19.0410  -34.0620    9.9500 N.am    3  LYS3       -0.1977
     36 CA        -18.4400  -34.6470   11.1360 C.3     3  LYS3        0.1596
     37 C         -18.7450  -33.8500   12.3870 C.2     3  LYS3        0.2287
     38 O         -19.1100  -34.4230   13.4170 O.2     3  LYS3       -0.2864
     39 CB        -16.9330  -34.7710   10.9720 C.3     3  LYS3        0.0298
     40 CG        -16.5360  -35.7390    9.8760 C.3     3  LYS3        0.0038
     41 CD        -15.2730  -36.5240   10.2350 C.3     3  LYS3        0.0206
     42 CE        -14.6030  -37.0570    8.9690 C.3     3  LYS3        0.1093
     43 NZ        -15.5980  -37.6000    7.9930 N.3     3  LYS3       -0.1314
     44 N         -21.1650  -32.1720   13.1250 N.3     1  LEU1       -0.1231
     45 CA        -22.5510  -32.1270   13.5240 C.3     1  LEU1        0.1693
     46 C         -23.2020  -33.4820   13.7800 C.2     1  LEU1        0.2591
     47 O         -24.3550  -33.5320   14.1940 O.2     1  LEU1       -0.2718
     48 CB        -23.3510  -31.3390   12.4920 C.3     1  LEU1        0.0284
     49 CG        -22.9470  -29.8800   12.2380 C.3     1  LEU1        0.0019
     50 CD1       -24.0850  -29.2380   11.4800 C.3     1  LEU1        0.0001
     51 CD2       -22.7120  -29.0990   13.5280 C.3     1  LEU1        0.0001
     52 N         -22.4800  -34.5770   13.5490 N.am    2  LYS2       -0.1980
     53 CA        -23.0500  -35.8980   13.7920 C.3     2  LYS2        0.1596
     54 C         -23.5620  -36.0270   15.2280 C.2     2  LYS2        0.2287
     55 O         -24.7420  -36.2940   15.4470 O.2     2  LYS2       -0.2864
     56 CB        -22.0180  -36.9910   13.5210 C.3     2  LYS2        0.0298
     57 CG        -22.6130  -38.3880   13.4520 C.3     2  LYS2        0.0038
     58 CD        -22.1710  -39.0860   12.1790 C.3     2  LYS2        0.0206
     59 CE        -23.2120  -40.0600   11.6820 C.3     2  LYS2        0.1093
     60 NZ        -23.4820  -41.1000   12.6930 N.3     2  LYS2       -0.1314
     61 N         -26.7830  -34.0080   15.7160 N.3     1  GLN1       -0.1245
     62 CA        -27.9920  -34.4570   15.0460 C.3     1  GLN1        0.1566
     63 C         -28.4400  -35.7510   15.7190 C.2     1  GLN1        0.2260
     64 O         -29.6360  -36.0280   15.8720 O.2     1  GLN1       -0.2867
     65 CB        -27.6980  -34.6850   13.5670 C.3     1  GLN1        0.0367
     66 CG        -27.0450  -33.5010   12.9020 C.3     1  GLN1        0.0905
     67 CD        -26.4170  -33.8750   11.5930 C.2     1  GLN1        0.2608
     68 OE1       -25.9130  -34.9840   11.4420 O.2     1  GLN1       -0.2717
     69 NE2       -26.4230  -32.9530   10.6390 N.am    1  GLN1       -0.0878
     70 N         -31.7360  -36.9220   11.2540 N.3     1  SER1       -0.1202
     71 CA        -30.8180  -37.3500   10.2140 C.3     1  SER1        0.2020
     72 C         -30.1710  -36.0750    9.6930 C.2     1  SER1        0.2619
     73 O         -30.6230  -34.9730   10.0090 O.2     1  SER1       -0.2717
     74 CB        -31.5830  -38.0170    9.0750 C.3     1  SER1        0.2103
     75 OG        -32.5620  -37.1300    8.5650 O.3     1  SER1       -0.2182
     76 N         -29.1270  -36.2270    8.8830 N.am    2  ALA2       -0.1965
     77 CA        -28.4230  -35.0890    8.2910 C.3     2  ALA2        0.1728
     78 C         -29.3590  -34.3200    7.3520 C.2     2  ALA2        0.2616
     79 O         -29.4180  -33.0910    7.3640 O.2     2  ALA2       -0.2715
     80 CB        -27.1970  -35.5900    7.5220 C.3     2  ALA2        0.0334
     81 N         -30.0900  -35.0600    6.5350 N.am    3  GLU3       -0.1977
     82 CA        -31.0170  -34.4580    5.6030 C.3     3  GLU3        0.1600
     83 C         -32.0250  -33.6600    6.3820 C.2     3  GLU3        0.2287
     84 O         -32.4560  -32.6030    5.9380 O.2     3  GLU3       -0.2864
     85 CB        -31.7300  -35.5310    4.7920 C.3     3  GLU3        0.0356
     86 CG        -31.6200  -36.9160    5.3910 C.3     3  GLU3        0.0439
     87 CD        -30.2230  -37.4930    5.2420 C.2     3  GLU3        0.0504
     88 OE2       -29.5240  -37.6570    6.2660 O.co2   3  GLU3       -0.5492
     89 OE1       -29.8210  -37.7730    4.0910 O.co2   3  GLU3       -0.5492
     90 N         -31.4600  -32.2360    9.2000 N.3     1  SER1       -0.1202
     91 CA        -30.7650  -31.0480    9.6720 C.3     1  SER1        0.2020
     92 C         -30.8020  -29.9820    8.6000 C.2     1  SER1        0.2618
     93 O         -31.2550  -28.8650    8.8380 O.2     1  SER1       -0.2717
     94 CB        -29.3060  -31.3550   10.0020 C.3     1  SER1        0.2103
     95 OG        -28.5810  -30.1600   10.2610 O.3     1  SER1       -0.2182
     96 N         -30.3200  -30.3270    7.4130 N.am    2  HIS2       -0.1975
     97 CA        -30.2890  -29.3660    6.3280 C.3     2  HIS2        0.1652
     98 C         -31.6340  -28.6810    6.1710 C.2     2  HIS2        0.2291
     99 O         -31.6930  -27.4730    5.9470 O.2     2  HIS2       -0.2864
    100 CB        -29.8910  -30.0390    5.0170 C.3     2  HIS2        0.0731
    101 CG        -29.6810  -29.0750    3.8900 C.2     2  HIS2        0.0652
    102 ND1       -28.5100  -29.0180    3.1640 N.2     2  HIS2       -0.2310
    103 CD2       -30.4730  -28.0900    3.4010 C.3     2  HIS2        0.1683
    104 CE1       -28.5850  -28.0370    2.2830 C.2     2  HIS2        0.1939
    105 NE2       -29.7660  -27.4570    2.4070 N.2     2  HIS2       -0.2440
    106 N         -32.0490  -25.9160    8.4770 N.3     1  ASN1       -0.1240
    107 CA        -31.1880  -24.7770    8.2140 C.3     1  ASN1        0.1653
    108 C         -31.6880  -23.7650    7.1750 C.2     1  ASN1        0.2266
    109 O         -31.3300  -22.5890    7.2360 O.2     1  ASN1       -0.2867
    110 CB        -29.7880  -25.2620    7.8500 C.3     1  ASN1        0.1155
    111 CG        -28.7100  -24.3130    8.3360 C.2     1  ASN1        0.2627
    112 OD1       -27.5570  -24.4170    7.9360 O.2     1  ASN1       -0.2716
    113 ND2       -29.0830  -23.3850    9.2110 N.am    1  ASN1       -0.0877
    114 N         -31.4060  -25.8020   18.2090 N.3     1  TYR1       -0.1241
    115 CA        -30.5410  -26.5990   17.3510 C.3     1  TYR1        0.1605
    116 C         -29.6470  -25.6960   16.5200 C.2     1  TYR1        0.2264
    117 O         -28.4230  -25.7530   16.6320 O.2     1  TYR1       -0.2867
    118 CB        -31.3680  -27.4830   16.4170 C.3     1  TYR1        0.0534
    119 CG        -30.5170  -28.2530   15.4260 C.ar    1  TYR1       -0.0201
    120 CD2       -29.4570  -29.0600   15.8640 C.ar    1  TYR1       -0.0009
    121 CD1       -30.7560  -28.1690   14.0490 C.ar    1  TYR1       -0.0009
    122 CE2       -28.6550  -29.7580   14.9600 C.ar    1  TYR1        0.0417
    123 CE1       -29.9560  -28.8680   13.1310 C.ar    1  TYR1        0.0417
    124 CZ        -28.9120  -29.6570   13.6030 C.ar    1  TYR1        0.1957
    125 OH        -28.1170  -30.3440   12.7250 O.3     1  TYR1       -0.2866
    126 N         -25.9370  -25.3650   16.4350 N.3     1  ARG1       -0.1245
    127 CA        -25.2460  -25.6180   15.1740 C.3     1  ARG1        0.1563
    128 C         -24.2900  -24.4650   14.8550 C.2     1  ARG1        0.2260
    129 O         -23.1040  -24.6800   14.5970 O.2     1  ARG1       -0.2867
    130 CB        -26.2410  -25.7840   14.0140 C.3     1  ARG1        0.0307
    131 CG        -25.5670  -26.0570   12.6810 C.3     1  ARG1        0.0489
    132 CD        -26.5610  -26.2150   11.5570 C.3     1  ARG1        0.2205
    133 NE        -25.8960  -26.4760   10.2790 N.pl3   1  ARG1       -0.0865
    134 CZ        -25.1980  -25.5710    9.5960 C.cat   1  ARG1        0.5346
    135 NH2       -25.0720  -24.3350   10.0590 N.pl3   1  ARG1        0.1354
    136 NH1       -24.6120  -25.9080    8.4530 N.pl3   1  ARG1        0.1354
    137 N         -20.1360  -24.2830   14.1430 N.3     1  MET1       -0.1245
    138 CA        -19.6430  -23.8440   12.8560 C.3     1  MET1        0.1570
    139 C         -18.7700  -22.6230   12.9600 C.2     1  MET1        0.2261
    140 O         -17.7300  -22.5610   12.3330 O.2     1  MET1       -0.2867
    141 CB        -20.8140  -23.5560   11.9350 C.3     1  MET1        0.0387
    142 CG        -21.6610  -24.7740   11.6700 C.3     1  MET1        0.0595
    143 SD        -20.6850  -26.0750   10.9050 S.3     1  MET1       -0.1393
    144 CE        -19.9540  -26.9000   12.3790 C.3     1  MET1        0.0692
@<TRIPOS>UNITY_ATOM_ATTR
88 1
charge -1
@<TRIPOS>BOND
     1     1     2    1
     2     2     5    1
     3     2     3    1
     4     3     8   am
     5     3     4    2
     6     5     7    1
     7     5     6    1
     8     8     9    1
     9     9    12    1
    10     9    10    1
    11    10    16   am
    12    10    11    2
    13    12    13    1
    14    13    15   am
    15    13    14    2
    16    16    17    1
    17    17    20    1
    18    17    18    1
    19    18    19    2
    20    20    21    1
    21    20    22    1
    22    23    24    1
    23    24    27    1
    24    24    25    1
    25    25    30   am
    26    25    26    2
    27    27    28    1
    28    27    29    1
    29    30    31    1
    30    31    34    1
    31    31    32    1
    32    32    35   am
    33    32    33    2
    34    35    36    1
    35    36    39    1
    36    36    37    1
    37    37    38    2
    38    39    40    1
    39    40    41    1
    40    41    42    1
    41    42    43    1
    42    44    45    1
    43    45    48    1
    44    45    46    1
    45    46    52   am
    46    46    47    2
    47    48    49    1
    48    49    50    1
    49    49    51    1
    50    52    53    1
    51    53    56    1
    52    53    54    1
    53    54    55    2
    54    56    57    1
    55    57    58    1
    56    58    59    1
    57    59    60    1
    58    61    62    1
    59    62    65    1
    60    62    63    1
    61    63    64    2
    62    65    66    1
    63    66    67    1
    64    67    69   am
    65    67    68    2
    66    70    71    1
    67    71    74    1
    68    71    72    1
    69    72    76   am
    70    72    73    2
    71    74    75    1
    72    76    77    1
    73    77    78    1
    74    77    80    1
    75    78    81   am
    76    78    79    2
    77    81    82    1
    78    82    85    1
    79    82    83    1
    80    83    84    2
    81    85    86    1
    82    86    87    1
    83    87    89   ar
    84    87    88   ar
    85    90    91    1
    86    91    92    1
    87    91    94    1
    88    92    96   am
    89    92    93    2
    90    94    95    1
    91    96    97    1
    92    97   100    1
    93    97    98    1
    94    98    99    2
    95   100   101    1
    96   101   102    2
    97   101   103    1
    98   102   104    1
    99   103   105    1
   100   104   105    2
   101   106   107    1
   102   107   108    1
   103   107   110    1
   104   108   109    2
   105   110   111    1
   106   111   112    2
   107   111   113   am
   108   114   115    1
   109   115   118    1
   110   115   116    1
   111   116   117    2
   112   118   119    1
   113   119   121   ar
   114   119   120   ar
   115   120   122   ar
   116   121   123   ar
   117   122   124   ar
   118   123   124   ar
   119   124   125    1
   120   126   127    1
   121   127   130    1
   122   127   128    1
   123   128   129    2
   124   130   131    1
   125   131   132    1
   126   132   133    1
   127   133   134    2
   128   134   136    1
   129   134   135    1
   130   137   138    1
   131   138   141    1
   132   138   139    1
   133   139   140    2
   134   141   142    1
   135   142   143    1
   136   143   144    1
