@<TRIPOS>MOLECULE
./1sgc/protein.pdb
 146 143 0 0 0
SMALL
GASTEIGER

@<TRIPOS>ATOM
      1 N          -6.7130   23.8290   23.9740 N.3     1  HIS1       -0.1241
      2 CA         -7.3630   24.6730   25.0290 C.3     1  HIS1        0.1618
      3 C          -7.1890   23.8950   26.3410 C.2     1  HIS1        0.2264
      4 O          -7.2830   24.4620   27.4590 O.2     1  HIS1       -0.2867
      5 CB         -8.7860   24.9870   24.5810 C.3     1  HIS1        0.0704
      6 CG         -9.7480   23.8120   24.6190 C.2     1  HIS1        0.0649
      7 ND1       -10.1990   23.1790   23.4770 N.2     1  HIS1       -0.2310
      8 CD2       -10.4620   23.2360   25.6750 C.3     1  HIS1        0.1683
      9 CE1       -11.0560   22.2030   23.7030 C.2     1  HIS1        0.1939
     10 NE2       -11.2030   22.2780   25.0610 N.2     1  HIS1       -0.2440
     11 N          -3.3990   27.2350   21.0350 N.3     1  PHE1       -0.1241
     12 CA         -4.8200   27.6000   21.1270 C.3     1  PHE1        0.1605
     13 C          -4.9350   29.0990   21.5250 C.2     1  PHE1        0.2264
     14 O          -4.2630   29.5490   22.4680 O.2     1  PHE1       -0.2867
     15 CB         -5.5840   26.5800   22.0150 C.3     1  PHE1        0.0534
     16 CG         -7.0680   27.0720   22.2330 C.ar    1  PHE1       -0.0203
     17 CD1        -8.0440   26.5740   21.3950 C.ar    1  PHE1       -0.0042
     18 CD2        -7.3060   27.9660   23.2240 C.ar    1  PHE1       -0.0042
     19 CE1        -9.3280   27.0300   21.5660 C.ar    1  PHE1       -0.0003
     20 CE2        -8.5600   28.4620   23.4190 C.ar    1  PHE1       -0.0003
     21 CZ         -9.5840   27.9870   22.5700 C.ar    1  PHE1       -0.0000
     22 N          -6.2000   24.1960   17.7190 N.3     1  ASP1       -0.1241
     23 CA         -6.6930   23.5750   18.9320 C.3     1  ASP1        0.1616
     24 C          -5.9540   22.2630   19.1040 C.2     1  ASP1        0.2264
     25 O          -6.5780   21.2060   19.0330 O.2     1  ASP1       -0.2867
     26 CB         -8.2210   23.5100   19.1280 C.3     1  ASP1        0.0687
     27 CG         -8.5870   23.2830   20.5560 C.2     1  ASP1        0.0522
     28 OD1        -9.8210   23.2080   20.9210 O.co2   1  ASP1       -0.5491
     29 OD2        -7.7510   23.0890   21.4580 O.co2   1  ASP1       -0.5491
     30 N         -15.5620   30.8750   19.6450 N.3     1  TYR1       -0.1241
     31 CA        -15.8560   30.4910   21.0110 C.3     1  TYR1        0.1605
     32 C         -15.9830   31.7110   21.9460 C.2     1  TYR1        0.2264
     33 O         -15.7320   31.5500   23.1570 O.2     1  TYR1       -0.2867
     34 CB        -14.7880   29.5400   21.5500 C.3     1  TYR1        0.0534
     35 CG        -14.7700   28.1870   20.8720 C.ar    1  TYR1       -0.0201
     36 CD1       -13.4930   27.7840   20.3290 C.ar    1  TYR1       -0.0009
     37 CD2       -15.8550   27.3670   20.7990 C.ar    1  TYR1       -0.0009
     38 CE1       -13.3670   26.5200   19.7530 C.ar    1  TYR1        0.0417
     39 CE2       -15.7240   26.1070   20.1750 C.ar    1  TYR1        0.0417
     40 CZ        -14.5010   25.7080   19.6550 C.ar    1  TYR1        0.1957
     41 OH        -14.3880   24.4700   19.0780 O.3     1  TYR1       -0.2866
     42 N         -21.6770   14.5430   15.2680 N.3     1  VAL1       -0.1231
     43 CA        -21.4560   13.7170   16.4320 C.3     1  VAL1        0.1692
     44 C         -21.5580   14.5990   17.6610 C.2     1  VAL1        0.2592
     45 O         -21.0640   15.7360   17.6320 O.2     1  VAL1       -0.2718
     46 CB        -20.1320   12.9110   16.3920 C.3     1  VAL1        0.0266
     47 CG2       -20.0220   12.0300   17.6210 C.3     1  VAL1        0.0020
     48 CG1       -19.9200   12.2780   15.0710 C.3     1  VAL1        0.0020
     49 N         -22.1650   14.0450   18.6910 N.am    2  CYS2       -0.1956
     50 CA        -22.3310   14.8130   19.9360 C.3     2  CYS2        0.1843
     51 C         -21.1040   14.7140   20.8320 C.2     2  CYS2        0.2625
     52 O         -20.2900   13.7930   20.6790 O.2     2  CYS2       -0.2714
     53 CB        -23.5860   14.2880   20.6410 C.3     2  CYS2        0.0997
     54 SG        -23.4470   12.6310   21.4500 S.3     2  CYS2       -0.0797
     55 N         -20.9890   15.7070   21.7530 N.am    3  ALA3       -0.1963
     56 CA        -19.8890   15.6750   22.7500 C.3     3  ALA3        0.1728
     57 C         -20.3510   16.4910   23.9440 C.2     3  ALA3        0.2616
     58 O         -21.3550   17.2090   23.8470 O.2     3  ALA3       -0.2715
     59 CB        -18.5740   16.1670   22.1410 C.3     3  ALA3        0.0334
     60 N         -19.6470   16.3920   25.0520 N.am    4  GLN4       -0.1964
     61 CA        -19.9280   17.1700   26.2780 C.3     4  GLN4        0.1718
     62 C         -18.5950   17.5640   26.8660 C.2     4  GLN4        0.2458
     63 O         -17.4820   17.1420   26.5170 O.2     4  GLN4       -0.2730
     64 CB        -20.8370   16.3900   27.2450 C.3     4  GLN4        0.0407
     65 CG        -22.1090   15.9300   26.5040 C.3     4  GLN4        0.0908
     66 CD        -23.1370   15.1580   27.2270 C.2     4  GLN4        0.2608
     67 OE1       -24.2260   14.7970   26.7000 O.2     4  GLN4       -0.2717
     68 NE2       -22.9560   14.8020   28.4940 N.am    4  GLN4       -0.0878
     69 N         -18.6330   18.4670   27.8540 N.am    5  PRO5       -0.2716
     70 CA        -17.4680   18.9720   28.5780 C.3     5  PRO5        0.1536
     71 C         -16.7940   17.7430   29.1370 C.2     5  PRO5        0.2599
     72 O         -17.4460   16.8050   29.5850 O.2     5  PRO5       -0.2715
     73 CB        -17.9850   19.9620   29.6480 C.3     5  PRO5        0.0310
     74 CG        -19.3130   20.3430   29.0370 C.3     5  PRO5        0.0237
     75 CD        -19.9080   19.1250   28.3410 C.3     5  PRO5        0.0939
     76 N         -15.4320   17.7350   29.0190 N.am    6  GLY6       -0.1941
     77 CA        -14.6560   16.5450   29.4270 C.3     6  GLY6        0.2014
     78 C         -14.2260   15.7530   28.1910 C.2     6  GLY6        0.2639
     79 O         -13.2560   15.0520   28.2400 O.2     6  GLY6       -0.2714
     80 N         -14.9380   15.8860   27.0900 N.am    7  ASP7       -0.1959
     81 CA        -14.6600   15.1190   25.8780 C.3     7  ASP7        0.1783
     82 C         -13.5770   15.7340   25.0160 C.2     7  ASP7        0.2620
     83 O         -13.0830   15.0540   24.1100 O.2     7  ASP7       -0.2715
     84 CB        -15.9200   14.9200   24.9860 C.3     7  ASP7        0.0728
     85 CG        -16.8330   13.8510   25.5640 C.2     7  ASP7        0.0526
     86 OD1       -18.0550   13.9590   25.3190 O.co2   7  ASP7       -0.5491
     87 OD2       -16.5120   12.9430   26.3590 O.co2   7  ASP7       -0.5491
     88 N         -13.2640   16.9710   25.2820 N.am    8  SER8       -0.1950
     89 CA        -12.2370   17.6540   24.4890 C.3     8  SER8        0.1924
     90 CB        -10.8420   16.9590   24.5130 C.2     8  SER8        0.2314
     91 OG        -10.4310   16.5200   25.5560 O.2     8  SER8       -0.2863
     92 C         -12.1160   19.1080   24.9970 C.3     8  SER8        0.2116
     93 O         -13.3980   19.7120   24.6510 O.3     8  SER8       -0.2180
     94 N         -11.0090   16.3740   19.4260 N.3     1  THR1       -0.1203
     95 CA        -12.2800   17.1070   19.8040 C.3     1  THR1        0.1994
     96 C         -11.9820   18.5190   20.3040 C.2     1  THR1        0.2619
     97 O         -11.1690   18.5630   21.2390 O.2     1  THR1       -0.2717
     98 CB        -13.0720   16.3340   20.8700 C.3     1  THR1        0.1784
     99 OG1       -13.2400   15.0060   20.3400 O.3     1  THR1       -0.2211
    100 CG2       -14.5130   16.8740   21.1500 C.3     1  THR1        0.0376
    101 N         -12.6620   19.5090   19.7720 N.am    2  SER2       -0.1937
    102 CA        -12.4030   20.8790   20.2240 C.3     2  SER2        0.2055
    103 C         -13.5790   21.4990   20.9920 C.2     2  SER2        0.2644
    104 O         -13.4870   22.0060   22.1320 O.2     2  SER2       -0.2714
    105 CB        -12.1200   21.6650   18.9500 C.3     2  SER2        0.2130
    106 OG        -11.9370   23.0700   19.3290 O.3     2  SER2       -0.2179
    107 N         -14.7060   21.4410   20.3330 N.am    3  GLY3       -0.1939
    108 CA        -15.9620   22.0250   20.8670 C.3     3  GLY3        0.2014
    109 C         -17.1430   21.7710   19.9660 C.2     3  GLY3        0.2639
    110 O         -17.1350   20.9180   19.0780 O.2     3  GLY3       -0.2714
    111 N         -18.1870   22.5540   20.2360 N.am    4  GLY4       -0.1939
    112 CA        -19.4540   22.4540   19.4470 C.3     4  GLY4        0.2014
    113 C         -20.6050   23.0350   20.2190 C.2     4  GLY4        0.2640
    114 O         -20.4560   23.9150   21.0260 O.2     4  GLY4       -0.2714
    115 N         -21.7460   22.4650   19.9530 N.am    5  SER5       -0.1935
    116 CA        -23.0330   22.8590   20.5530 C.3     5  SER5        0.2055
    117 C         -23.8360   21.6270   20.8480 C.2     5  SER5        0.2644
    118 O         -23.6140   20.5630   20.2610 O.2     5  SER5       -0.2714
    119 CB        -23.7570   23.7900   19.5710 C.3     5  SER5        0.2130
    120 OG        -23.8510   23.1210   18.3380 O.3     5  SER5       -0.2179
    121 N         -24.7580   21.7750   21.7920 N.am    6  GLY6       -0.1939
    122 CA        -25.6640   20.6370   22.1270 C.3     6  GLY6        0.2014
    123 C         -25.0330   19.6780   23.1020 C.2     6  GLY6        0.2638
    124 O         -24.1040   20.0810   23.8370 O.2     6  GLY6       -0.2714
    125 N         -25.5620   18.4410   23.0680 N.am    7  ASN7       -0.1972
    126 CA        -25.0980   17.4050   23.9530 C.3     7  ASN7        0.1688
    127 C         -25.5090   16.0310   23.4350 C.2     7  ASN7        0.2292
    128 O         -26.1470   15.9700   22.4200 O.2     7  ASN7       -0.2864
    129 CB        -25.5790   17.6960   25.4110 C.3     7  ASN7        0.1181
    130 CG        -27.1330   17.8320   25.3280 C.2     7  ASN7        0.2629
    131 OD1       -27.8130   16.8120   25.2050 O.2     7  ASN7       -0.2716
    132 ND2       -27.5060   19.1130   25.3040 N.am    7  ASN7       -0.0877
    133 N         -23.6100   19.4610   17.3020 N.3     1  THR1       -0.1203
    134 CA        -22.6060   19.6760   16.2620 C.3     1  THR1        0.1994
    135 C         -21.2130   19.6970   16.9190 C.2     1  THR1        0.2618
    136 O         -21.1410   20.2990   17.9890 O.2     1  THR1       -0.2717
    137 CB        -22.9140   20.9630   15.4770 C.3     1  THR1        0.1784
    138 OG1       -24.1380   20.5950   14.8040 O.3     1  THR1       -0.2211
    139 CG2       -21.9380   21.4720   14.4100 C.3     1  THR1        0.0376
    140 N         -20.2810   19.0190   16.3260 N.am    2  THR2       -0.1952
    141 CA        -18.9300   19.0690   16.9850 C.3     2  THR2        0.1897
    142 C         -17.9230   19.3830   15.9390 C.2     2  THR2        0.2313
    143 O         -18.0340   19.1200   14.7270 O.2     2  THR2       -0.2863
    144 CB        -18.6830   17.8840   17.9530 C.3     2  THR2        0.1794
    145 OG1       -18.7730   16.6460   17.1910 O.3     2  THR2       -0.2208
    146 CG2       -19.7010   17.9670   19.1130 C.3     2  THR2        0.0378
@<TRIPOS>UNITY_ATOM_ATTR
28 1
charge -1
86 1
charge -1
@<TRIPOS>BOND
     1     1     2    1
     2     2     5    1
     3     2     3    1
     4     3     4    2
     5     5     6    1
     6     6     7    2
     7     6     8    1
     8     7     9    1
     9     8    10    1
    10     9    10    2
    11    11    12    1
    12    12    13    1
    13    12    15    1
    14    13    14    2
    15    15    16    1
    16    16    17   ar
    17    16    18   ar
    18    17    19   ar
    19    18    20   ar
    20    19    21   ar
    21    20    21   ar
    22    22    23    1
    23    23    24    1
    24    23    26    1
    25    24    25    2
    26    26    27    1
    27    27    28   ar
    28    27    29   ar
    29    30    31    1
    30    31    34    1
    31    31    32    1
    32    32    33    2
    33    34    35    1
    34    35    36   ar
    35    35    37   ar
    36    36    38   ar
    37    37    39   ar
    38    38    40   ar
    39    39    40   ar
    40    40    41    1
    41    42    43    1
    42    43    46    1
    43    43    44    1
    44    44    45    2
    45    44    49   am
    46    46    48    1
    47    46    47    1
    48    49    50    1
    49    50    53    1
    50    50    51    1
    51    51    52    2
    52    51    55   am
    53    53    54    1
    54    55    56    1
    55    56    59    1
    56    56    57    1
    57    57    58    2
    58    57    60   am
    59    60    61    1
    60    61    62    1
    61    61    64    1
    62    62    63    2
    63    62    69   am
    64    64    65    1
    65    65    66    1
    66    66    67    2
    67    66    68   am
    68    69    75    1
    69    69    70    1
    70    70    71    1
    71    70    73    1
    72    71    76   am
    73    71    72    2
    74    73    74    1
    75    74    75    1
    76    76    77    1
    77    77    78    1
    78    78    80   am
    79    78    79    2
    80    80    81    1
    81    81    84    1
    82    81    82    1
    83    82    83    2
    84    82    88   am
    85    84    85    1
    86    85    86   ar
    87    85    87   ar
    88    88    89    1
    89    89    90    1
    90    89    92    1
    91    90    91    2
    92    92    93    1
    93    94    95    1
    94    95    96    1
    95    95    98    1
    96    96   101   am
    97    96    97    2
    98    98    99    1
    99    98   100    1
   100   101   102    1
   101   102   105    1
   102   102   103    1
   103   103   107   am
   104   103   104    2
   105   105   106    1
   106   107   108    1
   107   108   109    1
   108   109   110    2
   109   109   111   am
   110   111   112    1
   111   112   113    1
   112   113   115   am
   113   113   114    2
   114   115   116    1
   115   116   119    1
   116   116   117    1
   117   117   118    2
   118   117   121   am
   119   119   120    1
   120   121   122    1
   121   122   123    1
   122   123   125   am
   123   123   124    2
   124   125   126    1
   125   126   127    1
   126   126   129    1
   127   127   128    2
   128   129   130    1
   129   130   131    2
   130   130   132   am
   131   133   134    1
   132   134   137    1
   133   134   135    1
   134   135   140   am
   135   135   136    2
   136   137   139    1
   137   137   138    1
   138   140   141    1
   139   141   142    1
   140   141   144    1
   141   142   143    2
   142   144   145    1
   143   144   146    1
