@<TRIPOS>MOLECULE
./1djb/ligand.pdb
 15 15 0 0 0
SMALL
GASTEIGER

@<TRIPOS>ATOM
      1  N          3.3160   -9.8630   -9.8910 N.am    1  FOS1       -0.1562
      2  C          4.6010   -9.0010   -7.6250 C.3     1  FOS1        0.2368
      3  O          3.2890   -8.5380   -7.9350 O.3     1  FOS1       -0.4285
      4  CM         2.5500  -10.3520  -11.0000 C.3     1  FOS1        0.2307
      5  P          3.6900  -10.2160  -12.4020 P.3     1  FOS1        0.4190
      6  O1P        4.0340   -8.8660  -12.7990 O.2     1  FOS1       -0.2593
      7  O2P        5.0050  -10.7330  -12.2710 O.2     1  FOS1       -0.2593
      8  C1         5.4010   -7.9360   -6.9160 C.ar    1  FOS1        0.0213
      9  C2         4.7190   -7.0470   -6.0320 C.ar    1  FOS1       -0.0007
     10  C3         5.5070   -6.0750   -5.3480 C.ar    1  FOS1       -0.0002
     11  C4         6.8910   -6.0610   -5.5510 C.ar    1  FOS1       -0.0000
     12  C5         7.5430   -6.9310   -6.4010 C.ar    1  FOS1       -0.0002
     13  C6         6.8020   -7.8990   -7.0940 C.ar    1  FOS1       -0.0007
     14  C'         2.6720   -9.0770   -9.0160 C.2     1  FOS1        0.4220
     15  O'         1.5220   -8.8090   -9.2100 O.2     1  FOS1       -0.2245
@<TRIPOS>BOND
     1     1     4    1
     2     1    14   am
     3     2     3    1
     4     2     8    1
     5     3    14    1
     6     4     5    1
     7     5     6    2
     8     5     7    2
     9     8     9   ar
    10     8    13   ar
    11     9    10   ar
    12    10    11   ar
    13    11    12   ar
    14    12    13   ar
    15    14    15    2
