@<TRIPOS>MOLECULE
./1ytj/protein.pdb
 158 154 0 0 0
SMALL
GASTEIGER

@<TRIPOS>ATOM
      1 N         -14.2900    7.5570   -5.8080 N.3     1  LEU1       -0.1245
      2 CA        -13.7370    7.0610   -4.5460 C.3     1  LEU1        0.1561
      3 C         -13.1820    5.6890   -4.8430 C.2     1  LEU1        0.2260
      4 O         -13.8410    4.8060   -5.4320 O.2     1  LEU1       -0.2867
      5 CB        -14.8440    6.9810   -3.4760 C.3     1  LEU1        0.0270
      6 CG        -14.6540    6.1930   -2.1550 C.3     1  LEU1        0.0019
      7 CD2       -13.6600    6.8740   -1.2870 C.3     1  LEU1        0.0001
      8 CD1       -15.9440    6.1800   -1.3650 C.3     1  LEU1        0.0001
      9 N         -12.4780    2.2890   -3.8480 N.3     1  ASP1       -0.1241
     10 CA        -13.0720    1.4110   -2.8700 C.3     1  ASP1        0.1616
     11 C         -12.5810   -0.0320   -2.9280 C.2     1  ASP1        0.2264
     12 O         -12.9920   -0.7940   -3.7950 O.2     1  ASP1       -0.2867
     13 CB        -14.5600    1.4730   -3.0890 C.3     1  ASP1        0.0687
     14 CG        -15.4710    0.8850   -2.0470 C.2     1  ASP1        0.0522
     15 OD2       -15.1450   -0.0590   -1.3260 O.co2   1  ASP1       -0.5491
     16 OD1       -16.5680    1.3980   -1.9650 O.co2   1  ASP1       -0.5491
     17 N         -13.5950   -2.4670   -1.1480 N.3     1  GLY1       -0.1210
     18 CA        -14.6580   -3.3960   -0.9080 C.3     1  GLY1        0.1956
     19 C         -15.6560   -3.3660   -2.0420 C.2     1  GLY1        0.2612
     20 O         -16.7770   -3.8470   -1.8690 O.2     1  GLY1       -0.2717
     21 N         -15.4400   -2.6990   -3.1690 N.am    2  ALA2       -0.1965
     22 CA        -16.3830   -2.7800   -4.2660 C.3     2  ALA2        0.1728
     23 C         -15.7710   -3.7800   -5.2400 C.2     2  ALA2        0.2616
     24 O         -14.5620   -3.7330   -5.5170 O.2     2  ALA2       -0.2715
     25 CB        -16.5120   -1.4250   -4.9240 C.3     2  ALA2        0.0334
     26 N         -16.5210   -4.7500   -5.7500 N.am    3  ASP3       -0.1959
     27 CA        -15.9350   -5.6030   -6.7780 C.3     3  ASP3        0.1783
     28 C         -15.9680   -4.8810   -8.1230 C.2     3  ASP3        0.2620
     29 O         -15.0780   -5.0400   -8.9530 O.2     3  ASP3       -0.2715
     30 CB        -16.6930   -6.9070   -6.9170 C.3     3  ASP3        0.0728
     31 CG        -16.8160   -7.8170   -5.6880 C.2     3  ASP3        0.0526
     32 OD2       -15.9920   -7.7660   -4.7730 O.co2   3  ASP3       -0.5491
     33 OD1       -17.7700   -8.5990   -5.6490 O.co2   3  ASP3       -0.5491
     34 N         -16.9190   -3.9760   -8.2910 N.am    4  ASP4       -0.1959
     35 CA        -17.2190   -3.3320   -9.5580 C.3     4  ASP4        0.1783
     36 C         -17.0780   -1.8370   -9.3720 C.2     4  ASP4        0.2621
     37 O         -17.0560   -1.3580   -8.2390 O.2     4  ASP4       -0.2715
     38 CB        -18.6480   -3.5730   -9.9870 C.3     4  ASP4        0.0728
     39 CG        -19.1640   -4.9970   -9.9720 C.2     4  ASP4        0.0526
     40 OD1       -18.6650   -5.8100  -10.7470 O.co2   4  ASP4       -0.5491
     41 OD2       -20.0790   -5.2820   -9.1990 O.co2   4  ASP4       -0.5491
     42 N         -17.0810   -1.1020  -10.4620 N.am    5  SER5       -0.1936
     43 CA        -16.9540    0.3460  -10.4280 C.3     5  SER5        0.2055
     44 C         -18.2370    0.8820  -11.0090 C.2     5  SER5        0.2642
     45 O         -18.6760    0.4580  -12.0770 O.2     5  SER5       -0.2714
     46 CB        -15.7770    0.7930  -11.2830 C.3     5  SER5        0.2130
     47 OG        -14.6260    0.0840  -10.8560 O.3     5  SER5       -0.2179
     48 N         -18.8990    1.8080  -10.3530 N.am    6  ILE6       -0.1977
     49 CA        -20.1730    2.2860  -10.8440 C.3     6  ILE6        0.1596
     50 C         -20.1080    3.7930  -10.6150 C.2     6  ILE6        0.2287
     51 O         -19.6340    4.3090   -9.5950 O.2     6  ILE6       -0.2864
     52 CB        -21.3590    1.4640  -10.1080 C.3     6  ILE6        0.0276
     53 CG1       -22.3860    2.4400   -9.6440 C.3     6  ILE6        0.0022
     54 CG2       -20.8940    0.5350   -8.9530 C.3     6  ILE6        0.0022
     55 CD1       -23.4340    2.5600  -10.7120 C.3     6  ILE6        0.0001
     56 N         -26.5700   -4.5440   -8.6910 N.3     1  VAL1       -0.1231
     57 CA        -25.4820   -4.7270   -7.7470 C.3     1  VAL1        0.1692
     58 C         -26.0650   -4.3790   -6.3790 C.2     1  VAL1        0.2593
     59 O         -26.9250   -3.4930   -6.2290 O.2     1  VAL1       -0.2718
     60 CB        -24.2530   -3.7850   -8.0350 C.3     1  VAL1        0.0266
     61 CG1       -23.5870   -4.1540   -9.3320 C.3     1  VAL1        0.0020
     62 CG2       -24.6860   -2.3550   -8.1780 C.3     1  VAL1        0.0020
     63 N         -25.6510   -5.1120   -5.3700 N.am    2  GLY2       -0.1942
     64 CA        -26.0640   -4.8450   -4.0160 C.3     2  GLY2        0.2014
     65 C         -24.9860   -4.0940   -3.2970 C.2     2  GLY2        0.2639
     66 O         -23.8200   -4.2020   -3.6650 O.2     2  GLY2       -0.2714
     67 N         -25.4120   -3.3390   -2.3020 N.am    3  GLY3       -0.1939
     68 CA        -24.5460   -2.6100   -1.3980 C.3     3  GLY3        0.2014
     69 C         -25.1590   -2.7200    0.0010 C.2     3  GLY3        0.2639
     70 O         -26.0490   -3.5410    0.2180 O.2     3  GLY3       -0.2714
     71 N         -24.7510   -1.8820    0.9580 N.am    4  ILE4       -0.1963
     72 CA        -25.2830   -1.8580    2.3170 C.3     4  ILE4        0.1727
     73 C         -26.7850   -1.7990    2.3560 C.2     4  ILE4        0.2617
     74 O         -27.3810   -2.7810    2.8000 O.2     4  ILE4       -0.2715
     75 CB        -24.6570   -0.6430    3.1280 C.3     4  ILE4        0.0290
     76 CG1       -23.3340   -1.1720    3.6880 C.3     4  ILE4        0.0022
     77 CG2       -25.5050   -0.0930    4.2880 C.3     4  ILE4        0.0023
     78 CD1       -23.4270   -2.4700    4.5320 C.3     4  ILE4        0.0001
     79 N         -27.4450   -0.7610    1.8520 N.am    5  GLY5       -0.1940
     80 CA        -28.8780   -0.7040    2.1180 C.3     5  GLY5        0.2014
     81 C         -29.8120   -1.3970    1.1340 C.2     5  GLY5        0.2639
     82 O         -31.0110   -1.1050    1.1560 O.2     5  GLY5       -0.2714
     83 N         -29.3620   -2.2810    0.2550 N.am    6  GLY6       -0.1939
     84 CA        -30.2250   -2.7620   -0.8030 C.3     6  GLY6        0.2014
     85 C         -29.4790   -2.7190   -2.1170 C.2     6  GLY6        0.2639
     86 O         -28.2500   -2.7340   -2.1340 O.2     6  GLY6       -0.2714
     87 N         -30.1630   -2.6330   -3.2460 N.am    7  PHE7       -0.1959
     88 CA        -29.5020   -2.8200   -4.5280 C.3     7  PHE7        0.1771
     89 C         -29.9240   -1.8070   -5.5530 C.2     7  PHE7        0.2619
     90 O         -30.9150   -1.1350   -5.3350 O.2     7  PHE7       -0.2715
     91 CB        -29.7770   -4.2490   -5.0720 C.3     7  PHE7        0.0574
     92 CG        -31.2360   -4.6580   -5.2010 C.ar    7  PHE7       -0.0200
     93 CD1       -32.0250   -4.1690   -6.2430 C.ar    7  PHE7       -0.0042
     94 CD2       -31.7820   -5.5260   -4.2760 C.ar    7  PHE7       -0.0042
     95 CE1       -33.3610   -4.5490   -6.3500 C.ar    7  PHE7       -0.0003
     96 CE2       -33.1080   -5.8970   -4.3840 C.ar    7  PHE7       -0.0003
     97 CZ        -33.8990   -5.4080   -5.4140 C.ar    7  PHE7       -0.0000
     98 N         -29.2000   -1.6900   -6.6550 N.am    8  ILE8       -0.1977
     99 CA        -29.5320   -0.7650   -7.7260 C.3     8  ILE8        0.1596
    100 C         -29.4290   -1.3910   -9.1200 C.2     8  ILE8        0.2287
    101 O         -28.7170   -2.3800   -9.3650 O.2     8  ILE8       -0.2864
    102 CB        -28.6070    0.4690   -7.6760 C.3     8  ILE8        0.0276
    103 CG1       -27.1240    0.0840   -7.5130 C.3     8  ILE8        0.0022
    104 CG2       -29.1840    1.3730   -6.5740 C.3     8  ILE8        0.0022
    105 CD1       -26.2820    1.2680   -7.9510 C.3     8  ILE8        0.0001
    106 N         -28.0880   -1.1410  -12.7950 N.3     1  THR1       -0.1218
    107 CA        -26.9660   -0.5080  -13.4970 C.3     1  THR1        0.1862
    108 C         -26.9290   -0.9670  -14.9660 C.2     1  THR1        0.2287
    109 O         -27.5860   -1.9370  -15.3990 O.2     1  THR1       -0.2866
    110 CB        -25.6050   -0.8480  -12.8180 C.3     1  THR1        0.1770
    111 OG1       -25.3760   -2.2630  -12.8400 O.3     1  THR1       -0.2211
    112 CG2       -25.6140   -0.3310  -11.3790 C.3     1  THR1        0.0375
    113 N         -27.6880    4.7640  -10.2230 N.3     1  ASP1       -0.1227
    114 CA        -27.8700    5.8200   -9.2450 C.3     1  ASP1        0.1748
    115 C         -27.0760    5.5500   -7.9800 C.2     1  ASP1        0.2596
    116 O         -27.5810    5.1180   -6.9400 O.2     1  ASP1       -0.2718
    117 CB        -29.3720    5.9430   -8.9720 C.3     1  ASP1        0.0701
    118 CG        -29.7850    6.9830   -7.9300 C.2     1  ASP1        0.0523
    119 OD1       -29.2680    8.1150   -7.9500 O.co2   1  ASP1       -0.5491
    120 OD2       -30.6240    6.6330   -7.0890 O.co2   1  ASP1       -0.5491
    121 N         -25.7710    5.7260   -8.0840 N.am    2  THR2       -0.1939
    122 CA        -24.9620    5.5630   -6.9110 C.3     2  THR2        0.2013
    123 C         -24.9420    6.9390   -6.2290 C.2     2  THR2        0.2484
    124 O         -24.9930    7.9780   -6.9030 O.2     2  THR2       -0.2729
    125 CB        -23.5820    5.0680   -7.3510 C.3     2  THR2        0.1807
    126 OG1       -22.9250    4.7300   -6.1380 O.3     2  THR2       -0.2208
    127 CG2       -22.8130    6.0310   -8.1920 C.3     2  THR2        0.0379
    128 N         -24.9780    6.9700   -4.8850 N.am    3  PRO3       -0.2715
    129 CA        -24.7450    8.1540   -4.0740 C.3     3  PRO3        0.1536
    130 C         -23.3710    8.7940   -4.1840 C.2     3  PRO3        0.2598
    131 O         -23.2500    9.9910   -3.8940 O.2     3  PRO3       -0.2715
    132 CB        -25.0570    7.6840   -2.6930 C.3     3  PRO3        0.0310
    133 CG        -24.7810    6.2050   -2.7320 C.3     3  PRO3        0.0237
    134 CD        -25.4080    5.8460   -4.0570 C.3     3  PRO3        0.0939
    135 N         -22.3280    8.0180   -4.5300 N.am    4  ILE4       -0.1964
    136 CA        -20.9640    8.4910   -4.7250 C.3     4  ILE4        0.1727
    137 C         -20.3530    7.6320   -5.8370 C.2     4  ILE4        0.2616
    138 O         -20.6580    6.4600   -5.8820 O.2     4  ILE4       -0.2715
    139 CB        -20.1710    8.3510   -3.3960 C.3     4  ILE4        0.0290
    140 CG1       -20.1560    9.7180   -2.7420 C.3     4  ILE4        0.0022
    141 CG2       -18.6900    8.0150   -3.5690 C.3     4  ILE4        0.0023
    142 CD1       -21.2470   10.0400   -1.6930 C.3     4  ILE4        0.0001
    143 N         -19.4870    8.0920   -6.7290 N.am    5  ASN5       -0.1958
    144 CA        -18.9400    7.2700   -7.7790 C.3     5  ASN5        0.1819
    145 C         -17.8230    6.4190   -7.2410 C.2     5  ASN5        0.2621
    146 O         -16.9230    6.9390   -6.5740 O.2     5  ASN5       -0.2715
    147 CB        -18.3540    8.1020   -8.9070 C.3     5  ASN5        0.1195
    148 CG        -19.2980    9.1170   -9.5190 C.2     5  ASN5        0.2630
    149 OD1       -20.4740    8.8710   -9.7760 O.2     5  ASN5       -0.2716
    150 ND2       -18.8280   10.3200   -9.7550 N.am    5  ASN5       -0.0877
    151 N         -17.7650    5.1310   -7.5290 N.am    6  ILE6       -0.1977
    152 CA        -16.6960    4.3250   -6.9780 C.3     6  ILE6        0.1596
    153 C         -15.9120    3.5470   -8.0550 C.2     6  ILE6        0.2287
    154 O         -16.4560    3.0660   -9.0660 O.2     6  ILE6       -0.2864
    155 CB        -17.3000    3.3280   -5.9000 C.3     6  ILE6        0.0276
    156 CG1       -18.1070    2.2260   -6.5680 C.3     6  ILE6        0.0022
    157 CG2       -18.3280    4.0270   -4.9960 C.3     6  ILE6        0.0022
    158 CD1       -18.7170    1.1600   -5.6580 C.3     6  ILE6        0.0001
@<TRIPOS>UNITY_ATOM_ATTR
15 1
charge -1
32 1
charge -1
40 1
charge -1
119 1
charge -1
@<TRIPOS>BOND
     1     1     2    1
     2     2     3    1
     3     2     5    1
     4     3     4    2
     5     5     6    1
     6     6     8    1
     7     6     7    1
     8     9    10    1
     9    10    13    1
    10    10    11    1
    11    11    12    2
    12    13    14    1
    13    14    16   ar
    14    14    15   ar
    15    17    18    1
    16    18    19    1
    17    19    21   am
    18    19    20    2
    19    21    22    1
    20    22    23    1
    21    22    25    1
    22    23    26   am
    23    23    24    2
    24    26    27    1
    25    27    28    1
    26    27    30    1
    27    28    29    2
    28    28    34   am
    29    30    31    1
    30    31    33   ar
    31    31    32   ar
    32    34    35    1
    33    35    38    1
    34    35    36    1
    35    36    42   am
    36    36    37    2
    37    38    39    1
    38    39    40   ar
    39    39    41   ar
    40    42    43    1
    41    43    46    1
    42    43    44    1
    43    44    45    2
    44    44    48   am
    45    46    47    1
    46    48    49    1
    47    49    50    1
    48    49    52    1
    49    50    51    2
    50    52    53    1
    51    52    54    1
    52    53    55    1
    53    56    57    1
    54    57    60    1
    55    57    58    1
    56    58    59    2
    57    58    63   am
    58    60    61    1
    59    60    62    1
    60    63    64    1
    61    64    65    1
    62    65    66    2
    63    65    67   am
    64    67    68    1
    65    68    69    1
    66    69    70    2
    67    69    71   am
    68    71    72    1
    69    72    73    1
    70    72    75    1
    71    73    79   am
    72    73    74    2
    73    75    76    1
    74    75    77    1
    75    76    78    1
    76    79    80    1
    77    80    81    1
    78    81    83   am
    79    81    82    2
    80    83    84    1
    81    84    85    1
    82    85    87   am
    83    85    86    2
    84    87    88    1
    85    88    89    1
    86    88    91    1
    87    89    98   am
    88    89    90    2
    89    91    92    1
    90    92    93   ar
    91    92    94   ar
    92    93    95   ar
    93    94    96   ar
    94    95    97   ar
    95    96    97   ar
    96    98    99    1
    97    99   100    1
    98    99   102    1
    99   100   101    2
   100   102   103    1
   101   102   104    1
   102   103   105    1
   103   106   107    1
   104   107   108    1
   105   107   110    1
   106   108   109    2
   107   110   111    1
   108   110   112    1
   109   113   114    1
   110   114   117    1
   111   114   115    1
   112   115   121   am
   113   115   116    2
   114   117   118    1
   115   118   119   ar
   116   118   120   ar
   117   121   122    1
   118   122   125    1
   119   122   123    1
   120   123   124    2
   121   123   128   am
   122   125   127    1
   123   125   126    1
   124   128   129    1
   125   128   134    1
   126   129   130    1
   127   129   132    1
   128   130   135   am
   129   130   131    2
   130   132   133    1
   131   133   134    1
   132   135   136    1
   133   136   137    1
   134   136   139    1
   135   137   143   am
   136   137   138    2
   137   139   141    1
   138   139   140    1
   139   140   142    1
   140   143   144    1
   141   144   147    1
   142   144   145    1
   143   145   151   am
   144   145   146    2
   145   147   148    1
   146   148   149    2
   147   148   150   am
   148   151   152    1
   149   152   153    1
   150   152   155    1
   151   153   154    2
   152   155   156    1
   153   155   157    1
   154   156   158    1
