@<TRIPOS>MOLECULE
./1ytj/protein.pdb
 194 190 0 0 0
SMALL
GASTEIGER

@<TRIPOS>ATOM
      1 N           3.3780    5.8980   -4.8630 N.3     1  PRO1       -0.2102
      2 CA          2.8420    6.9470   -4.0050 C.3     1  PRO1        0.1504
      3 C           1.7550    6.2560   -3.1900 C.2     1  PRO1        0.2576
      4 O           1.5880    5.0560   -3.3860 O.2     1  PRO1       -0.2718
      5 CB          2.2830    8.0600   -4.9160 C.3     1  PRO1        0.0282
      6 CG          3.2090    8.0560   -6.0780 C.3     1  PRO1        0.0208
      7 CD          3.5230    6.5380   -6.1730 C.3     1  PRO1        0.0893
      8 N           0.9770    6.8990   -2.3320 N.am    2  GLN2       -0.1966
      9 CA         -0.0280    6.2220   -1.5500 C.3     2  GLN2        0.1733
     10 C          -0.9910    7.2480   -1.0400 C.2     2  GLN2        0.2616
     11 O          -0.7150    8.4650   -1.0820 O.2     2  GLN2       -0.2715
     12 CB          0.5930    5.5080   -0.3640 C.3     2  GLN2        0.0408
     13 CG          1.5040    6.3720    0.4460 C.3     2  GLN2        0.0908
     14 CD          2.3070    5.6390    1.5050 C.2     2  GLN2        0.2608
     15 OE1         2.6230    6.2800    2.5000 O.2     2  GLN2       -0.2717
     16 NE2         2.6680    4.3590    1.4610 N.am    2  GLN2       -0.0878
     17 N          -2.1210    6.6890   -0.6170 N.am    3  PHE3       -0.1960
     18 CA         -3.1510    7.4710    0.0240 C.3     3  PHE3        0.1771
     19 C          -3.0740    6.9470    1.4300 C.2     3  PHE3        0.2620
     20 O          -2.8190    5.7620    1.6570 O.2     3  PHE3       -0.2715
     21 CB         -4.5380    7.1790   -0.4740 C.3     3  PHE3        0.0574
     22 CG         -4.6870    7.4280   -1.9570 C.ar    3  PHE3       -0.0200
     23 CD1        -4.1620    6.5150   -2.8740 C.ar    3  PHE3       -0.0042
     24 CD2        -5.3580    8.5750   -2.3950 C.ar    3  PHE3       -0.0042
     25 CE1        -4.3190    6.7610   -4.2390 C.ar    3  PHE3       -0.0003
     26 CE2        -5.5070    8.8070   -3.7530 C.ar    3  PHE3       -0.0003
     27 CZ         -4.9920    7.9040   -4.6760 C.ar    3  PHE3       -0.0000
     28 N          -3.1720    7.8450    2.3970 N.am    4  HIS4       -0.1959
     29 CA         -3.2160    7.4430    3.7890 C.3     4  HIS4        0.1787
     30 C          -4.7040    7.5120    4.0630 C.2     4  HIS4        0.2620
     31 O          -5.3730    8.3600    3.4580 O.2     4  HIS4       -0.2715
     32 CB         -2.3890    8.4300    4.5900 C.3     4  HIS4        0.0785
     33 CG         -0.8860    8.1870    4.3850 C.ar    4  HIS4        0.0821
     34 ND1        -0.1040    7.3450    5.0630 N.ar    4  HIS4       -0.2267
     35 CD2        -0.0840    8.8190    3.4450 C.ar    4  HIS4        0.1154
     36 CE1         1.1150    7.4490    4.5880 C.ar    4  HIS4        0.1986
     37 NE2         1.1170    8.3270    3.6120 N.ar    4  HIS4       -0.2212
     38 N          -5.3380    6.7240    4.9180 N.am    5  LEU5       -0.1977
     39 CA         -6.7940    6.7500    4.9230 C.3     5  LEU5        0.1596
     40 C          -7.5110    7.6520    5.9360 C.2     5  LEU5        0.2287
     41 O          -8.6080    7.3550    6.4000 O.2     5  LEU5       -0.2864
     42 CB         -7.1910    5.2600    5.0080 C.3     5  LEU5        0.0297
     43 CG         -6.6620    4.3390    3.8720 C.3     5  LEU5        0.0022
     44 CD2        -6.9300    2.8720    4.1740 C.3     5  LEU5        0.0001
     45 CD1        -7.3470    4.7040    2.5780 C.3     5  LEU5        0.0001
     46 N         -10.1020    8.3610   -0.0880 N.3     1  PRO1       -0.2116
     47 CA         -9.2370    8.2970   -1.2510 C.3     1  PRO1        0.1372
     48 C         -10.0140    8.6590   -2.5400 C.2     1  PRO1        0.2244
     49 O         -10.4920    7.8000   -3.2770 O.2     1  PRO1       -0.2868
     50 CB         -8.6970    6.8760   -1.0830 C.3     1  PRO1        0.0268
     51 CG         -9.8290    6.0070   -0.5390 C.3     1  PRO1        0.0207
     52 CD        -10.5110    7.0160    0.3870 C.3     1  PRO1        0.0892
     53 N         -10.0440   10.7040   -6.3210 N.3     1  VAL1       -0.1245
     54 CA         -9.2260   11.2520   -7.3770 C.3     1  VAL1        0.1561
     55 C         -10.2010   11.6590   -8.4860 C.2     1  VAL1        0.2260
     56 O         -11.4000   11.3640   -8.4470 O.2     1  VAL1       -0.2867
     57 CB         -8.1900   10.2230   -7.9680 C.3     1  VAL1        0.0252
     58 CG2        -7.1030    9.9890   -6.9790 C.3     1  VAL1        0.0019
     59 CG1        -8.8090    8.8790   -8.2580 C.3     1  VAL1        0.0019
     60 N         -14.2900    7.5570   -5.8080 N.3     1  LEU1       -0.1231
     61 CA        -13.7370    7.0610   -4.5460 C.3     1  LEU1        0.1693
     62 C         -13.1820    5.6890   -4.8430 C.2     1  LEU1        0.2592
     63 O         -13.8410    4.8060   -5.4320 O.2     1  LEU1       -0.2718
     64 CB        -14.8440    6.9810   -3.4760 C.3     1  LEU1        0.0284
     65 CG        -14.6540    6.1930   -2.1550 C.3     1  LEU1        0.0019
     66 CD2       -13.6600    6.8740   -1.2870 C.3     1  LEU1        0.0001
     67 CD1       -15.9440    6.1800   -1.3650 C.3     1  LEU1        0.0001
     68 N         -11.9270    5.5050   -4.4870 N.am    2  LEU2       -0.1966
     69 CA        -11.2620    4.2240   -4.7010 C.3     2  LEU2        0.1728
     70 C         -11.6920    3.3150   -3.5610 C.2     2  LEU2        0.2616
     71 O         -11.3340    3.5520   -2.4130 O.2     2  LEU2       -0.2715
     72 CB         -9.7820    4.4770   -4.7010 C.3     2  LEU2        0.0311
     73 CG         -9.3390    5.5720   -5.6450 C.3     2  LEU2        0.0022
     74 CD2        -7.9440    5.9920   -5.2690 C.3     2  LEU2        0.0001
     75 CD1        -9.4730    5.1020   -7.0830 C.3     2  LEU2        0.0001
     76 N         -12.4780    2.2890   -3.8480 N.am    3  ASP3       -0.1959
     77 CA        -13.0720    1.4110   -2.8700 C.3     3  ASP3        0.1783
     78 C         -12.5810   -0.0320   -2.9280 C.2     3  ASP3        0.2621
     79 O         -12.9920   -0.7940   -3.7950 O.2     3  ASP3       -0.2715
     80 CB        -14.5600    1.4730   -3.0890 C.3     3  ASP3        0.0728
     81 CG        -15.4710    0.8850   -2.0470 C.2     3  ASP3        0.0526
     82 OD2       -15.1450   -0.0590   -1.3260 O.co2   3  ASP3       -0.5491
     83 OD1       -16.5680    1.3980   -1.9650 O.co2   3  ASP3       -0.5491
     84 N         -11.8190   -0.5220   -1.9590 N.am    4  THR4       -0.1937
     85 CA        -11.3480   -1.9030   -1.9900 C.3     4  THR4        0.2028
     86 C         -12.4830   -2.9070   -1.6960 C.2     4  THR4        0.2642
     87 O         -12.3930   -4.1150   -1.9190 O.2     4  THR4       -0.2714
     88 CB        -10.1650   -2.0100   -0.9740 C.3     4  THR4        0.1808
     89 OG1       -10.6190   -1.5880    0.3100 O.3     4  THR4       -0.2208
     90 CG2        -9.0390   -1.0390   -1.3050 C.3     4  THR4        0.0379
     91 N         -13.5950   -2.4670   -1.1480 N.am    5  GLY5       -0.1954
     92 CA        -14.6580   -3.3960   -0.9080 C.3     5  GLY5        0.1869
     93 C         -15.6560   -3.3660   -2.0420 C.2     5  GLY5        0.2309
     94 O         -16.7770   -3.8470   -1.8690 O.2     5  GLY5       -0.2863
     95 N          -4.7780    8.8490  -12.5280 N.3     1  LEU1       -0.1245
     96 CA         -3.4410    8.7170  -11.9330 C.3     1  LEU1        0.1561
     97 C          -2.2910    8.4740  -12.9050 C.2     1  LEU1        0.2260
     98 O          -1.3970    7.6620  -12.6660 O.2     1  LEU1       -0.2867
     99 CB         -3.4470    7.5910  -10.8720 C.3     1  LEU1        0.0270
    100 CG         -4.1890    7.7790   -9.5370 C.3     1  LEU1        0.0019
    101 CD1        -4.4640    6.3970   -8.9410 C.3     1  LEU1        0.0001
    102 CD2        -3.3940    8.7190   -8.6190 C.3     1  LEU1        0.0001
    103 N          -2.4810    7.0690  -15.9830 N.3     1  LYS1       -0.1245
    104 CA         -2.6090    5.9870  -16.9460 C.3     1  LYS1        0.1561
    105 C          -3.9440    6.0350  -17.6330 C.2     1  LYS1        0.2260
    106 O          -4.8870    6.7000  -17.1830 O.2     1  LYS1       -0.2867
    107 CB         -2.4560    4.6040  -16.2950 C.3     1  LYS1        0.0271
    108 CG         -2.1620    4.5960  -14.8070 C.3     1  LYS1        0.0035
    109 CD         -1.0810    3.6170  -14.4060 C.3     1  LYS1        0.0206
    110 CE         -0.8330    3.7260  -12.8750 C.3     1  LYS1        0.1093
    111 NZ         -0.3170    5.0260  -12.4350 N.3     1  LYS1       -0.1314
    112 N         -14.5960    3.4320   -7.8730 N.3     1  PHE1       -0.1227
    113 CA        -13.7800    2.5290   -8.6610 C.3     1  PHE1        0.1736
    114 C         -13.5050    1.3340   -7.7310 C.2     1  PHE1        0.2596
    115 O         -12.9000    1.5080   -6.6670 O.2     1  PHE1       -0.2718
    116 CB        -12.4500    3.1490   -9.0550 C.3     1  PHE1        0.0547
    117 CG        -12.4980    3.9860  -10.3170 C.ar    1  PHE1       -0.0202
    118 CD1       -13.7150    4.3420  -10.9250 C.ar    1  PHE1       -0.0042
    119 CD2       -11.2870    4.3840  -10.8800 C.ar    1  PHE1       -0.0042
    120 CE1       -13.7150    5.0980  -12.0900 C.ar    1  PHE1       -0.0003
    121 CE2       -11.2980    5.1380  -12.0500 C.ar    1  PHE1       -0.0003
    122 CZ        -12.5060    5.4970  -12.6490 C.ar    1  PHE1       -0.0000
    123 N         -13.9430    0.1260   -8.0840 N.am    2  GLY2       -0.1942
    124 CA        -13.7900   -1.0430   -7.2520 C.3     2  GLY2        0.2014
    125 C         -12.5720   -1.8250   -7.6710 C.2     2  GLY2        0.2638
    126 O         -11.7660   -1.3360   -8.4860 O.2     2  GLY2       -0.2714
    127 N         -12.4340   -3.0700   -7.1970 N.am    3  ARG3       -0.1977
    128 CA        -11.1890   -3.7960   -7.4170 C.3     3  ARG3        0.1597
    129 C         -10.8900   -4.1430   -8.8530 C.2     3  ARG3        0.2287
    130 O          -9.7150   -4.3110   -9.1780 O.2     3  ARG3       -0.2864
    131 CB        -11.1270   -5.0920   -6.6350 C.3     3  ARG3        0.0334
    132 CG        -11.0320   -4.9250   -5.1260 C.3     3  ARG3        0.0492
    133 CD        -10.9710   -6.2580   -4.4170 C.3     3  ARG3        0.2205
    134 NE        -12.2120   -6.9840   -4.6820 N.pl3   3  ARG3       -0.0865
    135 CZ        -12.2720   -8.0440   -5.5130 C.cat   3  ARG3        0.5346
    136 NH1       -11.1970   -8.5140   -6.1480 N.pl3   3  ARG3        0.1354
    137 NH2       -13.4370   -8.6300   -5.7280 N.pl3   3  ARG3        0.1354
    138 N          -8.9650   -0.9950   -9.6520 N.3     1  LEU1       -0.1231
    139 CA         -7.7650   -0.8610   -8.8180 C.3     1  LEU1        0.1693
    140 C          -6.7120   -1.9090   -9.1210 C.2     1  LEU1        0.2592
    141 O          -5.5210   -1.5880   -9.0120 O.2     1  LEU1       -0.2718
    142 CB         -8.0590   -0.9880   -7.3160 C.3     1  LEU1        0.0284
    143 CG         -9.1870   -0.1830   -6.6630 C.3     1  LEU1        0.0019
    144 CD2        -9.1010   -0.3550   -5.1360 C.3     1  LEU1        0.0001
    145 CD1        -9.0720    1.2720   -7.0640 C.3     1  LEU1        0.0001
    146 N          -7.0550   -3.1580   -9.4900 N.am    2  THR2       -0.1953
    147 CA         -6.0440   -4.1680   -9.8650 C.3     2  THR2        0.1897
    148 C          -5.3610   -3.7590  -11.1760 C.2     2  THR2        0.2313
    149 O          -4.1530   -3.9280  -11.3640 O.2     2  THR2       -0.2863
    150 CB         -6.6790   -5.5630  -10.0670 C.3     2  THR2        0.1794
    151 OG1        -7.6420   -5.3510  -11.0790 O.3     2  THR2       -0.2208
    152 CG2        -7.2840   -6.1830   -8.8070 C.3     2  THR2        0.0378
    153 N          -4.8190   -0.7690  -11.9500 N.3     1  LEU1       -0.1231
    154 CA         -3.9150    0.3170  -11.6120 C.3     1  LEU1        0.1693
    155 C          -2.7450   -0.0500  -10.7040 C.2     1  LEU1        0.2593
    156 O          -1.9790    0.8100  -10.2490 O.2     1  LEU1       -0.2718
    157 CB         -4.7310    1.4140  -10.9760 C.3     1  LEU1        0.0284
    158 CG         -5.7610    2.0810  -11.8800 C.3     1  LEU1        0.0019
    159 CD2        -6.6390    3.0100  -11.0680 C.3     1  LEU1        0.0001
    160 CD1        -5.0660    2.9000  -12.9310 C.3     1  LEU1        0.0001
    161 N          -2.5600   -1.3370  -10.4380 N.am    2  GLY2       -0.1942
    162 CA         -1.5060   -1.8210   -9.5630 C.3     2  GLY2        0.2014
    163 C          -1.6040   -1.2760   -8.1390 C.2     2  GLY2        0.2639
    164 O          -0.6100   -0.8940   -7.5160 O.2     2  GLY2       -0.2714
    165 N          -2.7930   -1.1890   -7.6030 N.am    3  MET3       -0.1963
    166 CA         -2.9090   -0.7040   -6.2550 C.3     3  MET3        0.1736
    167 C          -2.9340   -1.8330   -5.2820 C.2     3  MET3        0.2617
    168 O          -3.5570   -2.8410   -5.5920 O.2     3  MET3       -0.2715
    169 CB         -4.1670    0.0770   -6.1090 C.3     3  MET3        0.0427
    170 CG         -3.6970    1.4340   -6.4890 C.3     3  MET3        0.0599
    171 SD         -5.1090    2.5060   -6.6260 S.3     3  MET3       -0.1393
    172 CE         -5.0960    3.0470   -4.9440 C.3     3  MET3        0.0692
    173 N          -2.3030   -1.7360   -4.1310 N.am    4  SER4       -0.1936
    174 CA         -2.4440   -2.7810   -3.1490 C.3     4  SER4        0.2055
    175 C          -2.7480   -2.0700   -1.8310 C.2     4  SER4        0.2643
    176 O          -2.6330   -0.8420   -1.7030 O.2     4  SER4       -0.2714
    177 CB         -1.1430   -3.5870   -3.1170 C.3     4  SER4        0.2130
    178 OG         -0.0670   -2.6690   -2.9830 O.3     4  SER4       -0.2179
    179 N          -3.2510   -2.8310   -0.8610 N.am    5  LEU5       -0.1963
    180 CA         -3.5360   -2.3200    0.4590 C.3     5  LEU5        0.1728
    181 C          -2.3940   -2.8620    1.3320 C.2     5  LEU5        0.2616
    182 O          -2.2680   -4.0640    1.5660 O.2     5  LEU5       -0.2715
    183 CB         -4.9050   -2.8380    0.8310 C.3     5  LEU5        0.0311
    184 CG         -5.6060   -2.3770    2.0860 C.3     5  LEU5        0.0022
    185 CD1        -5.8280   -0.8740    2.0630 C.3     5  LEU5        0.0001
    186 CD2        -6.9350   -3.1380    2.1850 C.3     5  LEU5        0.0001
    187 N          -1.5340   -1.9470    1.7600 N.am    6  ASN6       -0.1972
    188 CA         -0.3370   -2.2160    2.5280 C.3     6  ASN6        0.1688
    189 C          -0.4540   -1.7660    3.9790 C.2     6  ASN6        0.2292
    190 O          -1.0590   -0.7270    4.2810 O.2     6  ASN6       -0.2864
    191 CB          0.8730   -1.4840    1.9610 C.3     6  ASN6        0.1181
    192 CG          1.2520   -1.8220    0.5430 C.2     6  ASN6        0.2629
    193 OD1         0.5250   -2.3760   -0.2740 O.2     6  ASN6       -0.2716
    194 ND2         2.4560   -1.4590    0.1830 N.am    6  ASN6       -0.0877
@<TRIPOS>UNITY_ATOM_ATTR
82 1
charge -1
@<TRIPOS>BOND
     1     1     7    1
     2     1     2    1
     3     2     5    1
     4     2     3    1
     5     3     4    2
     6     3     8   am
     7     5     6    1
     8     6     7    1
     9     8     9    1
    10     9    10    1
    11     9    12    1
    12    10    11    2
    13    10    17   am
    14    12    13    1
    15    13    14    1
    16    14    16   am
    17    14    15    2
    18    17    18    1
    19    18    21    1
    20    18    19    1
    21    19    20    2
    22    19    28   am
    23    21    22    1
    24    22    23   ar
    25    22    24   ar
    26    23    25   ar
    27    24    26   ar
    28    25    27   ar
    29    26    27   ar
    30    28    29    1
    31    29    30    1
    32    29    32    1
    33    30    31    2
    34    30    38   am
    35    32    33    1
    36    33    35   ar
    37    33    34   ar
    38    34    36   ar
    39    35    37   ar
    40    36    37   ar
    41    38    39    1
    42    39    42    1
    43    39    40    1
    44    40    41    2
    45    42    43    1
    46    43    45    1
    47    43    44    1
    48    46    47    1
    49    46    52    1
    50    47    48    1
    51    47    50    1
    52    48    49    2
    53    50    51    1
    54    51    52    1
    55    53    54    1
    56    54    55    1
    57    54    57    1
    58    55    56    2
    59    57    59    1
    60    57    58    1
    61    60    61    1
    62    61    62    1
    63    61    64    1
    64    62    63    2
    65    62    68   am
    66    64    65    1
    67    65    67    1
    68    65    66    1
    69    68    69    1
    70    69    72    1
    71    69    70    1
    72    70    76   am
    73    70    71    2
    74    72    73    1
    75    73    75    1
    76    73    74    1
    77    76    77    1
    78    77    80    1
    79    77    78    1
    80    78    79    2
    81    78    84   am
    82    80    81    1
    83    81    83   ar
    84    81    82   ar
    85    84    85    1
    86    85    86    1
    87    85    88    1
    88    86    87    2
    89    86    91   am
    90    88    90    1
    91    88    89    1
    92    91    92    1
    93    92    93    1
    94    93    94    2
    95    95    96    1
    96    96    97    1
    97    96    99    1
    98    97    98    2
    99    99   100    1
   100   100   101    1
   101   100   102    1
   102   103   104    1
   103   104   105    1
   104   104   107    1
   105   105   106    2
   106   107   108    1
   107   108   109    1
   108   109   110    1
   109   110   111    1
   110   112   113    1
   111   113   116    1
   112   113   114    1
   113   114   123   am
   114   114   115    2
   115   116   117    1
   116   117   118   ar
   117   117   119   ar
   118   118   120   ar
   119   119   121   ar
   120   120   122   ar
   121   121   122   ar
   122   123   124    1
   123   124   125    1
   124   125   126    2
   125   125   127   am
   126   127   128    1
   127   128   129    1
   128   128   131    1
   129   129   130    2
   130   131   132    1
   131   132   133    1
   132   133   134    1
   133   134   135    2
   134   135   136    1
   135   135   137    1
   136   138   139    1
   137   139   140    1
   138   139   142    1
   139   140   146   am
   140   140   141    2
   141   142   143    1
   142   143   145    1
   143   143   144    1
   144   146   147    1
   145   147   148    1
   146   147   150    1
   147   148   149    2
   148   150   151    1
   149   150   152    1
   150   153   154    1
   151   154   157    1
   152   154   155    1
   153   155   161   am
   154   155   156    2
   155   157   158    1
   156   158   160    1
   157   158   159    1
   158   161   162    1
   159   162   163    1
   160   163   165   am
   161   163   164    2
   162   165   166    1
   163   166   169    1
   164   166   167    1
   165   167   168    2
   166   167   173   am
   167   169   170    1
   168   170   171    1
   169   171   172    1
   170   173   174    1
   171   174   177    1
   172   174   175    1
   173   175   176    2
   174   175   179   am
   175   177   178    1
   176   179   180    1
   177   180   183    1
   178   180   181    1
   179   181   182    2
   180   181   187   am
   181   183   184    1
   182   184   185    1
   183   184   186    1
   184   187   188    1
   185   188   191    1
   186   188   189    1
   187   189   190    2
   188   191   192    1
   189   192   193    2
   190   192   194   am
