@<TRIPOS>MOLECULE
./1khr/protein.pdb
 215 214 0 0 0
SMALL
GASTEIGER

@<TRIPOS>ATOM
      1 N          -6.2140  -29.5670  -37.1730 N.3     1  TYR1       -0.1241
      2 CA         -7.5330  -30.1890  -37.2050 C.3     1  TYR1        0.1605
      3 C          -8.5190  -29.5970  -36.2090 C.2     1  TYR1        0.2264
      4 O          -8.1470  -28.8330  -35.3240 O.2     1  TYR1       -0.2867
      5 CB         -7.4170  -31.6860  -36.9310 C.3     1  TYR1        0.0534
      6 CG         -7.1070  -31.9920  -35.4890 C.ar    1  TYR1       -0.0201
      7 CD2        -8.1250  -32.3120  -34.5900 C.ar    1  TYR1       -0.0009
      8 CD1        -5.7890  -31.9420  -35.0140 C.ar    1  TYR1       -0.0009
      9 CE2        -7.8400  -32.5740  -33.2430 C.ar    1  TYR1        0.0417
     10 CE1        -5.4930  -32.2030  -33.6760 C.ar    1  TYR1        0.0417
     11 CZ         -6.5240  -32.5170  -32.7980 C.ar    1  TYR1        0.1957
     12 OH         -6.2400  -32.7760  -31.4810 O.3     1  TYR1       -0.2866
     13 N          -0.3170  -28.0140  -37.5980 N.3     1  PHE1       -0.1227
     14 CA         -0.1950  -28.9380  -36.4850 C.3     1  PHE1        0.1736
     15 C          -0.8850  -28.3870  -35.2650 C.2     1  PHE1        0.2596
     16 O          -0.4040  -28.5170  -34.1470 O.2     1  PHE1       -0.2718
     17 CB          1.2740  -29.2090  -36.2010 C.3     1  PHE1        0.0547
     18 CG          1.9320  -30.0230  -37.2660 C.ar    1  PHE1       -0.0202
     19 CD1         2.9210  -29.4680  -38.0680 C.ar    1  PHE1       -0.0042
     20 CD2         1.5310  -31.3390  -37.4970 C.ar    1  PHE1       -0.0042
     21 CE1         3.5020  -30.2090  -39.0890 C.ar    1  PHE1       -0.0003
     22 CE2         2.1070  -32.0910  -38.5160 C.ar    1  PHE1       -0.0003
     23 CZ          3.0940  -31.5240  -39.3140 C.ar    1  PHE1       -0.0000
     24 N          -2.0330  -27.7710  -35.5070 N.am    2  CYS2       -0.1956
     25 CA         -2.8300  -27.1900  -34.4500 C.3     2  CYS2        0.1843
     26 C          -3.9230  -28.1430  -34.0140 C.2     2  CYS2        0.2626
     27 O          -4.5320  -28.8280  -34.8350 O.2     2  CYS2       -0.2714
     28 CB         -3.4720  -25.8930  -34.9270 C.3     2  CYS2        0.0997
     29 SG         -2.3830  -24.4900  -34.8320 S.3     2  CYS2       -0.0797
     30 N          -4.1520  -28.1930  -32.7110 N.am    3  SER3       -0.1950
     31 CA         -5.2040  -29.0270  -32.1620 C.3     3  SER3        0.1924
     32 CB         -6.2470  -28.0190  -31.7190 C.2     3  SER3        0.2314
     33 OG         -5.9880  -27.2000  -30.8350 O.2     3  SER3       -0.2863
     34 C          -4.6790  -29.8300  -30.9760 C.3     3  SER3        0.2116
     35 O          -4.0760  -31.0330  -31.4240 O.3     3  SER3       -0.2180
     36 N           1.5520  -25.3580  -34.0140 N.3     1  ASP1       -0.1227
     37 CA          1.6520  -26.2390  -32.8550 C.3     1  ASP1        0.1748
     38 C           0.9360  -25.6240  -31.6540 C.2     1  ASP1        0.2596
     39 O           1.4750  -25.6000  -30.5470 O.2     1  ASP1       -0.2718
     40 CB          3.1250  -26.4730  -32.5120 C.3     1  ASP1        0.0701
     41 CG          3.3650  -27.7930  -31.8100 C.2     1  ASP1        0.0523
     42 OD1         2.6380  -28.7590  -32.0880 O.co2   1  ASP1       -0.5491
     43 OD2         4.2910  -27.8740  -30.9800 O.co2   1  ASP1       -0.5491
     44 N          -0.2710  -25.1070  -31.8840 N.am    2  VAL2       -0.1966
     45 CA         -1.0650  -24.5000  -30.8250 C.3     2  VAL2        0.1727
     46 C          -2.2500  -25.3810  -30.4940 C.2     2  VAL2        0.2616
     47 O          -2.9880  -25.8040  -31.3820 O.2     2  VAL2       -0.2715
     48 CB         -1.6100  -23.1230  -31.2200 C.3     2  VAL2        0.0290
     49 CG2        -2.2020  -22.4440  -29.9900 C.3     2  VAL2        0.0023
     50 CG1        -0.5050  -22.2720  -31.8120 C.3     2  VAL2        0.0023
     51 N          -2.4210  -25.6580  -29.2060 N.am    3  TRP3       -0.1960
     52 CA         -3.5170  -26.4900  -28.7310 C.3     3  TRP3        0.1768
     53 C          -4.5260  -25.5810  -28.0460 C.2     3  TRP3        0.2619
     54 O          -4.2020  -24.9240  -27.0590 O.2     3  TRP3       -0.2715
     55 CB         -2.9820  -27.5380  -27.7510 C.3     3  TRP3        0.0553
     56 CG         -4.0310  -28.3360  -27.0210 C.2     3  TRP3       -0.0136
     57 CD1        -5.2810  -28.6600  -27.4650 C.2     3  TRP3        0.0907
     58 CD2        -3.9040  -28.9280  -25.7200 C.3     3  TRP3        0.0819
     59 NE1        -5.9390  -29.4170  -26.5210 N.2     3  TRP3       -0.2482
     60 CE2        -5.1160  -29.5950  -25.4410 C.2     3  TRP3        0.0665
     61 CE3        -2.8800  -28.9580  -24.7620 C.2     3  TRP3       -0.0164
     62 CZ2        -5.3330  -30.2840  -24.2450 C.2     3  TRP3        0.0153
     63 CZ3        -3.0990  -29.6460  -23.5670 C.2     3  TRP3       -0.0038
     64 CH2        -4.3160  -30.2980  -23.3230 C.2     3  TRP3        0.0009
     65 N          -5.7410  -25.5270  -28.5840 N.am    4  ILE4       -0.1977
     66 CA         -6.7850  -24.6900  -28.0080 C.3     4  ILE4        0.1596
     67 C          -7.8650  -25.5610  -27.3860 C.2     4  ILE4        0.2287
     68 O          -8.4570  -26.4140  -28.0540 O.2     4  ILE4       -0.2864
     69 CB         -7.4060  -23.7550  -29.0620 C.3     4  ILE4        0.0276
     70 CG1        -6.3160  -22.8810  -29.6840 C.3     4  ILE4        0.0022
     71 CG2        -8.4130  -22.8350  -28.4170 C.3     4  ILE4        0.0022
     72 CD1        -6.7010  -22.3240  -31.0320 C.3     4  ILE4        0.0001
     73 N           3.2800  -22.9720  -30.1230 N.3     1  GLY1       -0.1210
     74 CA          3.4890  -23.8020  -28.9530 C.3     1  GLY1        0.1956
     75 C           2.6460  -23.4260  -27.7520 C.2     1  GLY1        0.2612
     76 O           2.8420  -23.9480  -26.6530 O.2     1  GLY1       -0.2717
     77 N           1.7000  -22.5210  -27.9570 N.am    2  ALA2       -0.1965
     78 CA          0.8350  -22.0700  -26.8760 C.3     2  ALA2        0.1728
     79 C          -0.3040  -23.0250  -26.5760 C.2     2  ALA2        0.2616
     80 O          -0.7920  -23.7290  -27.4610 O.2     2  ALA2       -0.2715
     81 CB          0.2710  -20.7180  -27.2120 C.3     2  ALA2        0.0334
     82 N          -0.7330  -23.0300  -25.3170 N.am    3  ILE3       -0.1977
     83 CA         -1.8430  -23.8670  -24.8890 C.3     3  ILE3        0.1596
     84 C          -2.8880  -22.9680  -24.2530 C.2     3  ILE3        0.2287
     85 O          -2.5850  -22.2260  -23.3230 O.2     3  ILE3       -0.2864
     86 CB         -1.4030  -24.9140  -23.8500 C.3     3  ILE3        0.0276
     87 CG1        -0.3670  -25.8440  -24.4730 C.3     3  ILE3        0.0022
     88 CG2        -2.6060  -25.7200  -23.3680 C.3     3  ILE3        0.0022
     89 CD1         0.1550  -26.9070  -23.5510 C.3     3  ILE3        0.0001
     90 N           4.7540  -20.6080  -26.7540 N.3     1  TYR1       -0.1241
     91 CA          4.9670  -21.6190  -25.7330 C.3     1  TYR1        0.1605
     92 C           4.5300  -21.2220  -24.3340 C.2     1  TYR1        0.2264
     93 O           5.2260  -21.5050  -23.3580 O.2     1  TYR1       -0.2867
     94 CB          6.4320  -22.0440  -25.7240 C.3     1  TYR1        0.0534
     95 CG          6.7710  -22.8900  -26.9220 C.ar    1  TYR1       -0.0201
     96 CD1         7.2330  -22.3060  -28.1040 C.ar    1  TYR1       -0.0009
     97 CD2         6.5480  -24.2640  -26.9080 C.ar    1  TYR1       -0.0009
     98 CE1         7.4570  -23.0720  -29.2530 C.ar    1  TYR1        0.0417
     99 CE2         6.7690  -25.0420  -28.0490 C.ar    1  TYR1        0.0417
    100 CZ          7.2220  -24.4380  -29.2210 C.ar    1  TYR1        0.1957
    101 OH          7.4340  -25.1970  -30.3580 O.3     1  TYR1       -0.2866
    102 N           5.8210  -22.8640  -20.7680 N.3     1  ARG1       -0.1231
    103 CA          5.9310  -24.3120  -20.8860 C.3     1  ARG1        0.1694
    104 C           7.3180  -24.8740  -20.5470 C.2     1  ARG1        0.2592
    105 O           7.4240  -25.7630  -19.7140 O.2     1  ARG1       -0.2718
    106 CB          5.4620  -24.7400  -22.2720 C.3     1  ARG1        0.0321
    107 CG          3.9780  -24.4740  -22.4420 C.3     1  ARG1        0.0489
    108 CD          3.4170  -25.1000  -23.6900 C.3     1  ARG1        0.2205
    109 NE          3.5590  -26.5480  -23.6650 N.pl3   1  ARG1       -0.0865
    110 CZ          3.7790  -27.2870  -24.7440 C.cat   1  ARG1        0.5346
    111 NH1         3.8790  -26.7030  -25.9390 N.pl3   1  ARG1        0.1354
    112 NH2         3.9090  -28.6060  -24.6250 N.pl3   1  ARG1        0.1354
    113 N           8.3670  -24.3590  -21.1840 N.am    2  PHE2       -0.1976
    114 CA          9.7330  -24.7990  -20.9000 C.3     2  PHE2        0.1639
    115 C          10.6560  -23.5880  -20.7160 C.2     2  PHE2        0.2290
    116 O          10.2420  -22.4430  -20.9090 O.2     2  PHE2       -0.2864
    117 CB         10.2850  -25.6580  -22.0330 C.3     2  PHE2        0.0560
    118 CG          9.2390  -26.3590  -22.8400 C.ar    2  PHE2       -0.0200
    119 CD1         8.8710  -25.8780  -24.0900 C.ar    2  PHE2       -0.0042
    120 CD2         8.6790  -27.5500  -22.3910 C.ar    2  PHE2       -0.0042
    121 CE1         7.9650  -26.5810  -24.8880 C.ar    2  PHE2       -0.0003
    122 CE2         7.7730  -28.2610  -23.1830 C.ar    2  PHE2       -0.0003
    123 CZ          7.4180  -27.7770  -24.4300 C.ar    2  PHE2       -0.0000
    124 N          13.3410  -23.9810  -30.3120 N.3     1  LEU1       -0.1245
    125 CA         12.1940  -24.3950  -31.1250 C.3     1  LEU1        0.1561
    126 C          11.7590  -23.2920  -32.0820 C.2     1  LEU1        0.2260
    127 O          11.3920  -23.5620  -33.2210 O.2     1  LEU1       -0.2867
    128 CB         11.0050  -24.7750  -30.2310 C.3     1  LEU1        0.0270
    129 CG         11.2230  -25.9310  -29.2550 C.3     1  LEU1        0.0019
    130 CD2        10.1460  -25.9560  -28.1820 C.3     1  LEU1        0.0001
    131 CD1        11.2200  -27.2250  -30.0340 C.3     1  LEU1        0.0001
    132 N          10.3410  -26.8060  -36.7950 N.3     1  TRP1       -0.1227
    133 CA         10.1410  -28.1060  -37.4090 C.3     1  TRP1        0.1734
    134 C           8.8530  -28.2400  -38.2280 C.2     1  TRP1        0.2595
    135 O           8.7610  -29.1010  -39.1080 O.2     1  TRP1       -0.2718
    136 CB         10.1960  -29.1950  -36.3350 C.3     1  TRP1        0.0524
    137 CG          9.1210  -29.0840  -35.3130 C.2     1  TRP1       -0.0167
    138 CD1         9.2370  -28.5730  -34.0480 C.3     1  TRP1        0.1477
    139 CD2         7.7580  -29.4980  -35.4580 C.ar    1  TRP1        0.0113
    140 NE1         8.0270  -28.6460  -33.4010 N.2     1  TRP1       -0.2659
    141 CE2         7.1020  -29.2090  -34.2420 C.ar    1  TRP1        0.0758
    142 CE3         7.0260  -30.0870  -36.5010 C.ar    1  TRP1        0.0009
    143 CZ2         5.7430  -29.4890  -34.0370 C.ar    1  TRP1        0.0187
    144 CZ3         5.6710  -30.3660  -36.2980 C.ar    1  TRP1        0.0001
    145 CH2         5.0470  -30.0650  -35.0760 C.ar    1  TRP1        0.0015
    146 N           7.8670  -27.3900  -37.9490 N.am    2  TRP2       -0.1976
    147 CA          6.5870  -27.4480  -38.6510 C.3     2  TRP2        0.1637
    148 C           6.7280  -27.0670  -40.1130 C.2     2  TRP2        0.2290
    149 O           5.8400  -27.3250  -40.9280 O.2     2  TRP2       -0.2864
    150 CB          5.5630  -26.5290  -37.9740 C.3     2  TRP2        0.0539
    151 CG          6.1370  -25.2490  -37.4010 C.2     2  TRP2       -0.0137
    152 CD1         6.3740  -24.0780  -38.0740 C.2     2  TRP2        0.0907
    153 CD2         6.5010  -25.0050  -36.0280 C.3     2  TRP2        0.0819
    154 NE1         6.8580  -23.1220  -37.2060 N.2     2  TRP2       -0.2482
    155 CE2         6.9480  -23.6620  -35.9460 C.2     2  TRP2        0.0665
    156 CE3         6.4930  -25.7870  -34.8610 C.2     2  TRP2       -0.0164
    157 CZ2         7.3830  -23.0870  -34.7390 C.2     2  TRP2        0.0153
    158 CZ3         6.9220  -25.2120  -33.6580 C.2     2  TRP2       -0.0038
    159 CH2         7.3600  -23.8760  -33.6120 C.2     2  TRP2        0.0009
    160 N           9.8360  -34.7080  -41.2010 N.3     1  ILE1       -0.1245
    161 CA          9.1150  -34.6560  -39.9510 C.3     1  ILE1        0.1561
    162 C           8.8510  -36.1140  -39.5910 C.2     1  ILE1        0.2260
    163 O           9.0840  -36.5360  -38.4590 O.2     1  ILE1       -0.2867
    164 CB          7.7980  -33.8800  -40.1160 C.3     1  ILE1        0.0252
    165 CG1         8.0790  -32.3780  -40.0310 C.3     1  ILE1        0.0019
    166 CG2         6.7960  -34.2920  -39.0490 C.3     1  ILE1        0.0019
    167 CD1         6.9280  -31.5050  -40.5010 C.3     1  ILE1        0.0001
    168 N          11.2790  -37.8900  -37.2620 N.3     1  ASN1       -0.1225
    169 CA         11.6490  -37.3050  -35.9790 C.3     1  ASN1        0.1785
    170 C          10.4410  -36.9850  -35.0980 C.2     1  ASN1        0.2597
    171 O          10.5530  -36.2350  -34.1200 O.2     1  ASN1       -0.2718
    172 CB         12.4840  -36.0420  -36.1990 C.3     1  ASN1        0.1169
    173 CG         13.5190  -36.2200  -37.2800 C.2     1  ASN1        0.2627
    174 OD1        14.7150  -36.2220  -37.0160 O.2     1  ASN1       -0.2716
    175 ND2        13.0610  -36.3770  -38.5090 N.am    1  ASN1       -0.0877
    176 N           9.2920  -37.5630  -35.4390 N.am    2  ILE2       -0.1980
    177 CA          8.0880  -37.3290  -34.6640 C.3     2  ILE2        0.1595
    178 C           8.3640  -37.5890  -33.1890 C.2     2  ILE2        0.2287
    179 O           7.9280  -36.8330  -32.3190 O.2     2  ILE2       -0.2864
    180 CB          6.9490  -38.2460  -35.1130 C.3     2  ILE2        0.0276
    181 CG1         6.4590  -37.8260  -36.5010 C.3     2  ILE2        0.0022
    182 CG2         5.8160  -38.1820  -34.0940 C.3     2  ILE2        0.0022
    183 CD1         5.3340  -38.6890  -37.0440 C.3     2  ILE2        0.0001
    184 N          10.2760  -34.8730  -31.7180 N.3     1  ILE1       -0.1231
    185 CA          9.4830  -33.6560  -31.6720 C.3     1  ILE1        0.1692
    186 C           8.5380  -33.7940  -30.4870 C.2     1  ILE1        0.2592
    187 O           8.2990  -32.8440  -29.7410 O.2     1  ILE1       -0.2718
    188 CB          8.6650  -33.4720  -32.9720 C.3     1  ILE1        0.0266
    189 CG1         9.6070  -33.1330  -34.1280 C.3     1  ILE1        0.0019
    190 CG2         7.6340  -32.3510  -32.8070 C.3     1  ILE1        0.0020
    191 CD1         9.0540  -33.5220  -35.4880 C.3     1  ILE1        0.0001
    192 N           8.0180  -34.9990  -30.3110 N.am    2  LEU2       -0.1966
    193 CA          7.1010  -35.2730  -29.2220 C.3     2  LEU2        0.1728
    194 C           7.7590  -35.1200  -27.8420 C.2     2  LEU2        0.2616
    195 O           7.0940  -34.7850  -26.8580 O.2     2  LEU2       -0.2715
    196 CB          6.5280  -36.6880  -29.3810 C.3     2  LEU2        0.0311
    197 CG          5.4560  -36.8270  -30.4670 C.3     2  LEU2        0.0022
    198 CD1         5.0040  -38.2920  -30.6400 C.3     2  LEU2        0.0001
    199 CD2         4.2840  -35.9460  -30.0740 C.3     2  LEU2        0.0001
    200 N           9.0640  -35.3390  -27.7610 N.am    3  ASP3       -0.1959
    201 CA          9.7200  -35.2510  -26.4650 C.3     3  ASP3        0.1783
    202 C          10.7410  -34.1390  -26.3700 C.2     3  ASP3        0.2620
    203 O          11.5990  -34.1150  -25.4890 O.2     3  ASP3       -0.2715
    204 CB         10.3460  -36.6080  -26.1080 C.3     3  ASP3        0.0728
    205 CG         11.6780  -36.8410  -26.7830 C.2     3  ASP3        0.0526
    206 OD1        12.1010  -36.0080  -27.6080 O.co2   3  ASP3       -0.5491
    207 OD2        12.3050  -37.8730  -26.4780 O.co2   3  ASP3       -0.5491
    208 N          10.6480  -33.2060  -27.2940 N.am    4  ASN4       -0.1972
    209 CA         11.5510  -32.0820  -27.2740 C.3     4  ASN4        0.1688
    210 C          13.0130  -32.4150  -27.4150 C.2     4  ASN4        0.2292
    211 O          13.8080  -31.5690  -27.1770 O.2     4  ASN4       -0.2864
    212 CB         11.3690  -31.3010  -25.9760 C.3     4  ASN4        0.1181
    213 CG         10.6470  -29.9990  -26.1820 C.2     4  ASN4        0.2629
    214 OD1        10.0660  -29.7670  -27.2300 O.2     4  ASN4       -0.2716
    215 ND2        10.6740  -29.1400  -25.1750 N.am    4  ASN4       -0.0877
@<TRIPOS>UNITY_ATOM_ATTR
42 1
charge -1
206 1
charge -1
@<TRIPOS>BOND
     1     1     2    1
     2     2     5    1
     3     2     3    1
     4     3     4    2
     5     5     6    1
     6     6     8   ar
     7     6     7   ar
     8     7     9   ar
     9     8    10   ar
    10     9    11   ar
    11    10    11   ar
    12    11    12    1
    13    13    14    1
    14    14    17    1
    15    14    15    1
    16    15    24   am
    17    15    16    2
    18    17    18    1
    19    18    19   ar
    20    18    20   ar
    21    19    21   ar
    22    20    22   ar
    23    21    23   ar
    24    22    23   ar
    25    24    25    1
    26    25    28    1
    27    25    26    1
    28    26    27    2
    29    26    30   am
    30    28    29    1
    31    30    31    1
    32    31    32    1
    33    31    34    1
    34    32    33    2
    35    34    35    1
    36    36    37    1
    37    37    40    1
    38    37    38    1
    39    38    44   am
    40    38    39    2
    41    40    41    1
    42    41    42   ar
    43    41    43   ar
    44    44    45    1
    45    45    48    1
    46    45    46    1
    47    46    47    2
    48    46    51   am
    49    48    50    1
    50    48    49    1
    51    51    52    1
    52    52    53    1
    53    52    55    1
    54    53    65   am
    55    53    54    2
    56    55    56    1
    57    56    57    2
    58    56    58    1
    59    57    59    1
    60    58    60    1
    61    58    61    1
    62    59    60    2
    63    60    62    1
    64    61    63    2
    65    62    64    2
    66    63    64    1
    67    65    66    1
    68    66    69    1
    69    66    67    1
    70    67    68    2
    71    69    70    1
    72    69    71    1
    73    70    72    1
    74    73    74    1
    75    74    75    1
    76    75    77   am
    77    75    76    2
    78    77    78    1
    79    78    81    1
    80    78    79    1
    81    79    80    2
    82    79    82   am
    83    82    83    1
    84    83    84    1
    85    83    86    1
    86    84    85    2
    87    86    87    1
    88    86    88    1
    89    87    89    1
    90    90    91    1
    91    91    94    1
    92    91    92    1
    93    92    93    2
    94    94    95    1
    95    95    96   ar
    96    95    97   ar
    97    96    98   ar
    98    97    99   ar
    99    98   100   ar
   100    99   100   ar
   101   100   101    1
   102   102   103    1
   103   103   106    1
   104   103   104    1
   105   104   113   am
   106   104   105    2
   107   106   107    1
   108   107   108    1
   109   108   109    1
   110   109   110    2
   111   110   111    1
   112   110   112    1
   113   113   114    1
   114   114   117    1
   115   114   115    1
   116   115   116    2
   117   117   118    1
   118   118   119   ar
   119   118   120   ar
   120   119   121   ar
   121   120   122   ar
   122   121   123   ar
   123   122   123   ar
   124   124   125    1
   125   125   126    1
   126   125   128    1
   127   126   127    2
   128   128   129    1
   129   129   131    1
   130   129   130    1
   131   132   133    1
   132   133   134    1
   133   133   136    1
   134   134   135    2
   135   134   146   am
   136   136   137    1
   137   137   139    2
   138   137   138    1
   139   138   140    1
   140   139   142   ar
   141   139   141   ar
   142   140   141    2
   143   141   143   ar
   144   142   144   ar
   145   143   145   ar
   146   144   145   ar
   147   146   147    1
   148   147   148    1
   149   147   150    1
   150   148   149    2
   151   150   151    1
   152   151   152    2
   153   151   153    1
   154   152   154    1
   155   153   155    1
   156   153   156    1
   157   154   155    2
   158   155   157    1
   159   156   158    2
   160   157   159    2
   161   158   159    1
   162   160   161    1
   163   161   164    1
   164   161   162    1
   165   162   163    2
   166   164   165    1
   167   164   166    1
   168   165   167    1
   169   168   169    1
   170   169   172    1
   171   169   170    1
   172   170   176   am
   173   170   171    2
   174   172   173    1
   175   173   175   am
   176   173   174    2
   177   176   177    1
   178   177   180    1
   179   177   178    1
   180   178   179    2
   181   180   181    1
   182   180   182    1
   183   181   183    1
   184   184   185    1
   185   185   188    1
   186   185   186    1
   187   186   192   am
   188   186   187    2
   189   188   189    1
   190   188   190    1
   191   189   191    1
   192   192   193    1
   193   193   196    1
   194   193   194    1
   195   194   200   am
   196   194   195    2
   197   196   197    1
   198   197   198    1
   199   197   199    1
   200   200   201    1
   201   201   202    1
   202   201   204    1
   203   202   208   am
   204   202   203    2
   205   204   205    1
   206   205   206   ar
   207   205   207   ar
   208   208   209    1
   209   209   210    1
   210   209   212    1
   211   210   211    2
   212   212   213    1
   213   213   214    2
   214   213   215   am
