@<TRIPOS>MOLECULE
./2vu9/protein.pdb
 176 172 0 0 0
SMALL
GASTEIGER

@<TRIPOS>ATOM
      1 N          32.9870   22.2690    2.2200 N.3     1  ASP1       -0.1241
      2 CA         32.2370   22.7200    1.0670 C.3     1  ASP1        0.1616
      3 C          32.6410   24.1400    0.7940 C.2     1  ASP1        0.2264
      4 O          32.0660   25.0700    1.3490 O.2     1  ASP1       -0.2867
      5 CB         30.7470   22.6390    1.3390 C.3     1  ASP1        0.0687
      6 CG         29.9160   23.0120    0.1370 C.2     1  ASP1        0.0522
      7 OD1        30.4720   23.4660   -0.8790 O.co2   1  ASP1       -0.5491
      8 OD2        28.6990   22.8300    0.2230 O.co2   1  ASP1       -0.5491
      9 N          30.6100   27.3230    0.2470 N.3     1  GLN1       -0.1245
     10 CA         29.9930   28.0300    1.3820 C.3     1  GLN1        0.1566
     11 C          30.9170   29.1180    1.8910 C.2     1  GLN1        0.2260
     12 O          32.0000   28.8260    2.4070 O.2     1  GLN1       -0.2867
     13 CB         29.6170   27.0580    2.5150 C.3     1  GLN1        0.0367
     14 CG         28.6390   26.0050    2.0170 C.3     1  GLN1        0.0905
     15 CD         27.9610   25.1430    3.0650 C.2     1  GLN1        0.2608
     16 OE1        26.8580   24.6390    2.8120 O.2     1  GLN1       -0.2717
     17 NE2        28.5870   24.9790    4.2220 N.am    1  GLN1       -0.0878
     18 N          21.7970   30.8470   -2.0800 N.3     1  TRP1       -0.1227
     19 CA         21.4620   30.2220   -0.8170 C.3     1  TRP1        0.1734
     20 C          22.0940   31.0690    0.2860 C.2     1  TRP1        0.2595
     21 O          23.1740   31.6470    0.1210 O.2     1  TRP1       -0.2718
     22 CB         21.9690   28.7850   -0.8020 C.3     1  TRP1        0.0527
     23 CG         21.3500   27.8870   -1.7720 C.2     1  TRP1       -0.0139
     24 CD1        21.6010   27.8560   -3.0880 C.2     1  TRP1        0.0907
     25 CD2        20.4270   26.8470   -1.5010 C.3     1  TRP1        0.0819
     26 NE1        20.8550   26.8710   -3.6910 N.2     1  TRP1       -0.2482
     27 CE2        20.1330   26.2240   -2.7300 C.2     1  TRP1        0.0665
     28 CE3        19.8090   26.3890   -0.3490 C.2     1  TRP1       -0.0164
     29 CZ2        19.2230   25.1900   -2.8320 C.2     1  TRP1        0.0153
     30 CZ3        18.9020   25.3540   -0.4490 C.2     1  TRP1       -0.0038
     31 CH2        18.6360   24.7580   -1.6750 C.2     1  TRP1        0.0009
     32 N          21.4240   31.1340    1.4350 N.am    2  ILE2       -0.1980
     33 CA         21.9170   31.9450    2.5250 C.3     2  ILE2        0.1595
     34 C          21.6220   31.2090    3.8330 C.2     2  ILE2        0.2287
     35 O          20.6170   30.4920    3.9400 O.2     2  ILE2       -0.2864
     36 CB         21.2870   33.3750    2.5150 C.3     2  ILE2        0.0276
     37 CG1        22.0200   34.3450    3.4490 C.3     2  ILE2        0.0022
     38 CG2        19.7630   33.2800    2.8040 C.3     2  ILE2        0.0022
     39 CD1        21.6160   35.7980    3.2450 C.3     2  ILE2        0.0001
     40 N          20.2820   26.7270    5.9660 N.3     1  TRP1       -0.1227
     41 CA         20.4180   27.0940    4.5530 C.3     1  TRP1        0.1734
     42 C          19.0660   27.1690    3.8810 C.2     1  TRP1        0.2595
     43 O          18.2860   26.1820    3.9180 O.2     1  TRP1       -0.2718
     44 CB         21.2910   26.0910    3.8260 C.3     1  TRP1        0.0524
     45 CG         22.7480   26.2430    4.1200 C.2     1  TRP1       -0.0167
     46 CD1        23.5380   25.4640    4.9090 C.3     1  TRP1        0.1477
     47 CD2        23.5990   27.2440    3.5730 C.ar    1  TRP1        0.0113
     48 NE1        24.8180   25.9340    4.9000 N.2     1  TRP1       -0.2659
     49 CE2        24.8830   27.0260    4.0780 C.ar    1  TRP1        0.0758
     50 CE3        23.3820   28.3330    2.7190 C.ar    1  TRP1        0.0009
     51 CZ2        25.9550   27.8360    3.7340 C.ar    1  TRP1        0.0187
     52 CZ3        24.4300   29.1250    2.3740 C.ar    1  TRP1        0.0001
     53 CH2        25.7060   28.8840    2.8790 C.ar    1  TRP1        0.0015
     54 N          18.7940   28.3260    3.2760 N.am    2  ILE2       -0.1966
     55 CA         17.5470   28.4910    2.5500 C.3     2  ILE2        0.1727
     56 C          17.8650   29.0170    1.1700 C.2     2  ILE2        0.2616
     57 O          18.8520   29.7620    0.9590 O.2     2  ILE2       -0.2715
     58 CB         16.5620   29.3040    3.2840 C.3     2  ILE2        0.0290
     59 CG1        17.0580   30.7030    3.4410 C.3     2  ILE2        0.0022
     60 CG2        16.2780   28.6820    4.6720 C.3     2  ILE2        0.0023
     61 CD1        16.1310   31.6360    4.3360 C.3     2  ILE2        0.0001
     62 N          17.0410   28.5880    0.2310 N.am    3  PHE3       -0.1974
     63 CA         17.2010   29.0580   -1.1780 C.3     3  PHE3        0.1639
     64 C          16.3680   30.3230   -1.4810 C.2     3  PHE3        0.2290
     65 O          15.1510   30.3210   -1.3650 O.2     3  PHE3       -0.2864
     66 CB         16.8090   27.9220   -2.1390 C.3     3  PHE3        0.0560
     67 CG         17.0330   28.2370   -3.5710 C.ar    3  PHE3       -0.0200
     68 CD2        18.2560   28.7460   -4.0250 C.ar    3  PHE3       -0.0042
     69 CD1        16.0200   28.0490   -4.4890 C.ar    3  PHE3       -0.0042
     70 CE2        18.4420   29.0320   -5.3760 C.ar    3  PHE3       -0.0003
     71 CE1        16.2200   28.3210   -5.8430 C.ar    3  PHE3       -0.0003
     72 CZ         17.4250   28.8130   -6.2800 C.ar    3  PHE3       -0.0000
     73 N          12.8890   28.8100   -0.9090 N.3     1  ASN1       -0.1240
     74 CA         12.7720   27.3520   -1.0950 C.3     1  ASN1        0.1653
     75 C          11.7520   27.0020   -2.1600 C.2     1  ASN1        0.2266
     76 O          10.9580   26.0790   -2.0040 O.2     1  ASN1       -0.2867
     77 CB         12.5020   26.6290    0.2370 C.3     1  ASN1        0.1155
     78 CG         13.6590   26.7240    1.2030 C.2     1  ASN1        0.2627
     79 OD1        14.7920   27.0370    0.8110 O.2     1  ASN1       -0.2716
     80 ND2        13.4010   26.4430    2.4750 N.am    1  ASN1       -0.0877
     81 N          26.0000   31.0300   -0.6120 N.3     1  LYS1       -0.1245
     82 CA         26.5200   30.1150   -1.6570 C.3     1  LYS1        0.1561
     83 C          25.7530   30.1980   -2.9560 C.2     1  LYS1        0.2260
     84 O          24.5750   30.5600   -2.9550 O.2     1  LYS1       -0.2867
     85 CB         26.6130   28.6760   -1.1750 C.3     1  LYS1        0.0271
     86 CG         25.3690   28.0110   -0.8270 C.3     1  LYS1        0.0035
     87 CD         25.6770   26.6100   -0.3220 C.3     1  LYS1        0.0206
     88 CE         24.4620   25.8960    0.2330 C.3     1  LYS1        0.1093
     89 NZ         24.9040   24.6060    0.8990 N.3     1  LYS1       -0.1314
     90 N          16.1150   25.0460   -7.5890 N.3     1  TYR1       -0.1241
     91 CA         16.1100   24.6120   -6.2010 C.3     1  TYR1        0.1605
     92 C          16.5080   23.1440   -6.0500 C.2     1  TYR1        0.2264
     93 O          17.3590   22.7870   -5.2470 O.2     1  TYR1       -0.2867
     94 CB         14.7180   24.8940   -5.6090 C.3     1  TYR1        0.0534
     95 CG         14.4530   24.4890   -4.1830 C.ar    1  TYR1       -0.0201
     96 CD2        15.3240   24.8150   -3.1460 C.ar    1  TYR1       -0.0009
     97 CD1        13.2560   23.8370   -3.8390 C.ar    1  TYR1       -0.0009
     98 CE2        15.0440   24.4810   -1.8160 C.ar    1  TYR1        0.0417
     99 CE1        12.9880   23.5000   -2.5100 C.ar    1  TYR1        0.0417
    100 CZ         13.8670   23.8240   -1.5210 C.ar    1  TYR1        0.1957
    101 OH         13.6010   23.4960   -0.2060 O.3     1  TYR1       -0.2866
    102 N          20.2700   22.4820   -7.3560 N.3     1  GLN1       -0.1231
    103 CA         21.3400   22.9740   -6.4750 C.3     1  GLN1        0.1698
    104 C          21.2850   22.4020   -5.0730 C.2     1  GLN1        0.2593
    105 O          22.1310   22.7150   -4.2160 O.2     1  GLN1       -0.2718
    106 CB         21.3110   24.5090   -6.3680 C.3     1  GLN1        0.0381
    107 CG         21.6150   25.2290   -7.6670 C.3     1  GLN1        0.0905
    108 CD         21.6150   26.7210   -7.5560 C.2     1  GLN1        0.2608
    109 OE1        21.3740   27.2720   -6.4830 O.2     1  GLN1       -0.2717
    110 NE2        21.9250   27.3970   -8.6510 N.am    1  GLN1       -0.0878
    111 N          20.2520   21.6090   -4.8020 N.am    2  SER2       -0.1938
    112 CA         20.1660   20.8940   -3.5490 C.3     2  SER2        0.2055
    113 C          20.3430   19.3920   -3.7560 C.2     2  SER2        0.2643
    114 O          20.6320   18.6990   -2.8010 O.2     2  SER2       -0.2714
    115 CB         18.8290   21.1540   -2.8430 C.3     2  SER2        0.2130
    116 OG         17.7230   20.8100   -3.6580 O.3     2  SER2       -0.2179
    117 N          20.2200   18.9070   -4.9890 N.am    3  ASN3       -0.1971
    118 CA         20.3790   17.4800   -5.2450 C.3     3  ASN3        0.1688
    119 C          21.8090   17.1190   -5.0150 C.2     3  ASN3        0.2292
    120 O          22.7120   17.7840   -5.5250 O.2     3  ASN3       -0.2864
    121 CB         19.9910   17.1390   -6.6630 C.3     3  ASN3        0.1181
    122 CG         18.4870   17.0060   -6.8410 C.2     3  ASN3        0.2629
    123 OD1        17.7410   16.8480   -5.8610 O.2     3  ASN3       -0.2716
    124 ND2        18.0350   17.0330   -8.0890 N.am    3  ASN3       -0.0877
    125 N          22.7150   15.6970    4.6430 N.3     1  LYS1       -0.1245
    126 CA         22.9310   16.9640    5.3420 C.3     1  LYS1        0.1561
    127 C          22.3700   16.9130    6.7650 C.2     1  LYS1        0.2260
    128 O          21.5030   16.0880    7.1010 O.2     1  LYS1       -0.2867
    129 CB         22.3610   18.1520    4.5570 C.3     1  LYS1        0.0271
    130 CG         22.7330   18.2060    3.0860 C.3     1  LYS1        0.0035
    131 CD         24.2260   18.3410    2.8690 C.3     1  LYS1        0.0206
    132 CE         24.5730   18.4400    1.3710 C.3     1  LYS1        0.1093
    133 NZ         24.1230   19.7050    0.7700 N.3     1  LYS1       -0.1314
    134 N          21.6890   22.2240    7.3040 N.3     1  GLY1       -0.1210
    135 CA         21.9310   22.1130    5.8690 C.3     1  GLY1        0.1956
    136 C          23.3610   21.8830    5.4390 C.2     1  GLY1        0.2612
    137 O          23.6600   21.8930    4.2370 O.2     1  GLY1       -0.2717
    138 N          24.2580   21.6900    6.4050 N.am    2  ASP2       -0.1961
    139 CA         25.6590   21.3970    6.1140 C.3     2  ASP2        0.1783
    140 C          25.8290   19.8870    5.8980 C.2     2  ASP2        0.2620
    141 O          24.9540   19.1070    6.2730 O.2     2  ASP2       -0.2715
    142 CB         26.5280   21.8950    7.2710 C.3     2  ASP2        0.0728
    143 CG         26.5430   23.3880    7.3790 C.2     2  ASP2        0.0526
    144 OD1        26.5150   24.0300    6.3120 O.co2   2  ASP2       -0.5491
    145 OD2        26.5770   23.9140    8.5060 O.co2   2  ASP2       -0.5491
    146 N          26.9500   19.4660    5.3050 N.am    3  TYR3       -0.1974
    147 CA         27.2030   18.0380    5.1310 C.3     3  TYR3        0.1639
    148 C          27.1250   17.2710    6.4680 C.2     3  TYR3        0.2290
    149 O          27.7540   17.6320    7.4490 O.2     3  TYR3       -0.2864
    150 CB         28.5930   17.7870    4.5450 C.3     3  TYR3        0.0560
    151 CG         28.8750   18.2490    3.1340 C.ar    3  TYR3       -0.0198
    152 CD1        27.8960   18.7380    2.3140 C.ar    3  TYR3       -0.0009
    153 CD2        30.1630   18.1500    2.6370 C.ar    3  TYR3       -0.0009
    154 CE1        28.2080   19.1670    1.0090 C.ar    3  TYR3        0.0417
    155 CE2        30.4700   18.5520    1.3550 C.ar    3  TYR3        0.0417
    156 CZ         29.4930   19.0520    0.5650 C.ar    3  TYR3        0.1957
    157 OH         29.7780   19.4350   -0.7260 O.3     3  TYR3       -0.2866
    158 N          14.1250   19.9120   -1.7990 N.3     1  GLY1       -0.1210
    159 CA         15.1430   20.6880   -1.1180 C.3     1  GLY1        0.1956
    160 C          16.3200   19.9310   -0.5600 C.2     1  GLY1        0.2612
    161 O          16.6820   18.8530   -1.0290 O.2     1  GLY1       -0.2717
    162 N          16.9210   20.5190    0.4700 N.am    2  ILE2       -0.1965
    163 CA         18.1600   19.9930    1.0640 C.3     2  ILE2        0.1727
    164 C          18.0290   18.5600    1.5350 C.2     2  ILE2        0.2616
    165 O          16.9950   18.1520    2.0870 O.2     2  ILE2       -0.2715
    166 CB         18.6170   20.9280    2.1890 C.3     2  ILE2        0.0290
    167 CG1        19.1320   22.2230    1.5260 C.3     2  ILE2        0.0022
    168 CG2        19.7220   20.3050    3.0540 C.3     2  ILE2        0.0023
    169 CD1        19.4400   23.3390    2.5160 C.3     2  ILE2        0.0001
    170 N          19.0850   17.7740    1.3020 N.am    3  THR3       -0.1951
    171 CA         19.0700   16.3600    1.6500 C.3     3  THR3        0.1897
    172 C          19.3730   16.0880    3.1250 C.2     3  THR3        0.2313
    173 O          20.2120   15.2300    3.4560 O.2     3  THR3       -0.2863
    174 CB         20.0550   15.5920    0.7570 C.3     3  THR3        0.1794
    175 OG1        21.3370   16.2380    0.8100 O.3     3  THR3       -0.2208
    176 CG2        19.5460   15.6150   -0.6930 C.3     3  THR3        0.0378
@<TRIPOS>UNITY_ATOM_ATTR
7 1
charge -1
144 1
charge -1
@<TRIPOS>BOND
     1     1     2    1
     2     2     3    1
     3     2     5    1
     4     3     4    2
     5     5     6    1
     6     6     7   ar
     7     6     8   ar
     8     9    10    1
     9    10    11    1
    10    10    13    1
    11    11    12    2
    12    13    14    1
    13    14    15    1
    14    15    16    2
    15    15    17   am
    16    18    19    1
    17    19    22    1
    18    19    20    1
    19    20    21    2
    20    20    32   am
    21    22    23    1
    22    23    24    2
    23    23    25    1
    24    24    26    1
    25    25    27    1
    26    25    28    1
    27    26    27    2
    28    27    29    1
    29    28    30    2
    30    29    31    2
    31    30    31    1
    32    32    33    1
    33    33    36    1
    34    33    34    1
    35    34    35    2
    36    36    38    1
    37    36    37    1
    38    37    39    1
    39    40    41    1
    40    41    44    1
    41    41    42    1
    42    42    54   am
    43    42    43    2
    44    44    45    1
    45    45    47    2
    46    45    46    1
    47    46    48    1
    48    47    50   ar
    49    47    49   ar
    50    48    49    2
    51    49    51   ar
    52    50    52   ar
    53    51    53   ar
    54    52    53   ar
    55    54    55    1
    56    55    56    1
    57    55    58    1
    58    56    62   am
    59    56    57    2
    60    58    59    1
    61    58    60    1
    62    59    61    1
    63    62    63    1
    64    63    66    1
    65    63    64    1
    66    64    65    2
    67    66    67    1
    68    67    69   ar
    69    67    68   ar
    70    68    70   ar
    71    69    71   ar
    72    70    72   ar
    73    71    72   ar
    74    73    74    1
    75    74    75    1
    76    74    77    1
    77    75    76    2
    78    77    78    1
    79    78    79    2
    80    78    80   am
    81    81    82    1
    82    82    83    1
    83    82    85    1
    84    83    84    2
    85    85    86    1
    86    86    87    1
    87    87    88    1
    88    88    89    1
    89    90    91    1
    90    91    92    1
    91    91    94    1
    92    92    93    2
    93    94    95    1
    94    95    97   ar
    95    95    96   ar
    96    96    98   ar
    97    97    99   ar
    98    98   100   ar
    99    99   100   ar
   100   100   101    1
   101   102   103    1
   102   103   106    1
   103   103   104    1
   104   104   111   am
   105   104   105    2
   106   106   107    1
   107   107   108    1
   108   108   110   am
   109   108   109    2
   110   111   112    1
   111   112   113    1
   112   112   115    1
   113   113   117   am
   114   113   114    2
   115   115   116    1
   116   117   118    1
   117   118   121    1
   118   118   119    1
   119   119   120    2
   120   121   122    1
   121   122   124   am
   122   122   123    2
   123   125   126    1
   124   126   129    1
   125   126   127    1
   126   127   128    2
   127   129   130    1
   128   130   131    1
   129   131   132    1
   130   132   133    1
   131   134   135    1
   132   135   136    1
   133   136   137    2
   134   136   138   am
   135   138   139    1
   136   139   140    1
   137   139   142    1
   138   140   146   am
   139   140   141    2
   140   142   143    1
   141   143   144   ar
   142   143   145   ar
   143   146   147    1
   144   147   150    1
   145   147   148    1
   146   148   149    2
   147   150   151    1
   148   151   152   ar
   149   151   153   ar
   150   152   154   ar
   151   153   155   ar
   152   154   156   ar
   153   155   156   ar
   154   156   157    1
   155   158   159    1
   156   159   160    1
   157   160   161    2
   158   160   162   am
   159   162   163    1
   160   163   164    1
   161   163   166    1
   162   164   170   am
   163   164   165    2
   164   166   167    1
   165   166   168    1
   166   167   169    1
   167   170   171    1
   168   171   174    1
   169   171   172    1
   170   172   173    2
   171   174   176    1
   172   174   175    1
