@<TRIPOS>MOLECULE
./2vu9/protein.pdb
 277 273 0 0 0
SMALL
GASTEIGER

@<TRIPOS>ATOM
      1 N          23.9140   35.1000  -16.3230 N.3     1  ILE1       -0.1245
      2 CA         24.9500   36.0770  -16.6910 C.3     1  ILE1        0.1561
      3 C          26.0160   36.2760  -15.6030 C.2     1  ILE1        0.2260
      4 O          26.9630   37.0350  -15.7800 O.2     1  ILE1       -0.2867
      5 CB         24.3400   37.4320  -17.1250 C.3     1  ILE1        0.0252
      6 CG1        23.5120   38.0570  -16.0130 C.3     1  ILE1        0.0019
      7 CG2        23.5030   37.2500  -18.4020 C.3     1  ILE1        0.0019
      8 CD1        22.8080   39.3980  -16.3740 C.3     1  ILE1        0.0001
      9 N          31.5430   43.5680  -13.0340 N.3     1  LEU1       -0.1245
     10 CA         30.7750   43.1570  -14.1930 C.3     1  LEU1        0.1561
     11 C          31.2730   43.8120  -15.4540 C.2     1  LEU1        0.2260
     12 O          31.5430   45.0040  -15.4810 O.2     1  LEU1       -0.2867
     13 CB         29.3020   43.5280  -14.0170 C.3     1  LEU1        0.0270
     14 CG         28.5710   42.9160  -12.8170 C.3     1  LEU1        0.0019
     15 CD2        27.2590   43.6400  -12.6570 C.3     1  LEU1        0.0001
     16 CD1        28.3700   41.4200  -13.0220 C.3     1  LEU1        0.0001
     17 N          26.8010   43.5070  -19.3250 N.3     1  ILE1       -0.1231
     18 CA         25.8340   42.8770  -18.4310 C.3     1  ILE1        0.1692
     19 C          25.4940   43.7570  -17.2320 C.2     1  ILE1        0.2592
     20 O          24.7330   43.3380  -16.3430 O.2     1  ILE1       -0.2718
     21 CB         26.2780   41.4580  -17.9990 C.3     1  ILE1        0.0266
     22 CG1        27.6590   41.4760  -17.3260 C.3     1  ILE1        0.0019
     23 CG2        26.3000   40.5310  -19.2120 C.3     1  ILE1        0.0020
     24 CD1        27.9520   40.1570  -16.5830 C.3     1  ILE1        0.0001
     25 N          26.0160   44.9850  -17.2170 N.am    2  VAL2       -0.1966
     26 CA         25.5400   45.9980  -16.2790 C.3     2  VAL2        0.1727
     27 C          24.0590   46.3140  -16.5800 C.2     2  VAL2        0.2616
     28 O          23.6630   46.4860  -17.7360 O.2     2  VAL2       -0.2715
     29 CB         26.3830   47.3020  -16.3090 C.3     2  VAL2        0.0290
     30 CG2        25.7460   48.3580  -15.3990 C.3     2  VAL2        0.0023
     31 CG1        27.8270   47.0280  -15.8640 C.3     2  VAL2        0.0023
     32 N          23.2470   46.3390  -15.5310 N.am    3  TYR3       -0.1974
     33 CA         21.8280   46.6110  -15.7050 C.3     3  TYR3        0.1639
     34 C          21.6390   48.0970  -15.8580 C.2     3  TYR3        0.2290
     35 O          21.9790   48.8840  -14.9700 O.2     3  TYR3       -0.2864
     36 CB         20.9920   46.1150  -14.5250 C.3     3  TYR3        0.0560
     37 CG         19.5380   46.1100  -14.8840 C.ar    3  TYR3       -0.0198
     38 CD2        18.7670   47.2550  -14.7260 C.ar    3  TYR3       -0.0009
     39 CD1        18.9600   45.0050  -15.4710 C.ar    3  TYR3       -0.0009
     40 CE2        17.4510   47.2780  -15.1210 C.ar    3  TYR3        0.0417
     41 CE1        17.6150   45.0110  -15.8500 C.ar    3  TYR3        0.0417
     42 CZ         16.8740   46.1510  -15.6880 C.ar    3  TYR3        0.1957
     43 OH         15.5400   46.2590  -16.0870 O.3     3  TYR3       -0.2866
     44 N          14.2900   45.5500  -19.3980 N.3     1  GLU1       -0.1231
     45 CA         14.8910   44.2180  -19.3230 C.3     1  GLU1        0.1697
     46 C          14.5550   43.5060  -18.0350 C.2     1  GLU1        0.2592
     47 O          14.7540   44.0390  -16.9650 O.2     1  GLU1       -0.2718
     48 CB         16.4100   44.2940  -19.4930 C.3     1  GLU1        0.0343
     49 CG         16.7430   44.5780  -20.9380 C.3     1  GLU1        0.0437
     50 CD         18.0800   45.2240  -21.1760 C.2     1  GLU1        0.0504
     51 OE2        18.8860   45.3950  -20.2390 O.co2   1  GLU1       -0.5492
     52 OE1        18.3050   45.5790  -22.3570 O.co2   1  GLU1       -0.5492
     53 N          14.0630   42.2790  -18.1520 N.am    2  ASN2       -0.1960
     54 CA         13.7530   41.4630  -16.9990 C.3     2  ASN2        0.1819
     55 C          15.0060   40.7840  -16.5090 C.2     2  ASN2        0.2621
     56 O          15.8960   40.5050  -17.2650 O.2     2  ASN2       -0.2715
     57 CB         12.6820   40.4320  -17.3600 C.3     2  ASN2        0.1195
     58 CG         11.3600   41.0790  -17.7300 C.2     2  ASN2        0.2630
     59 OD1        11.1490   42.2750  -17.4650 O.2     2  ASN2       -0.2716
     60 ND2        10.4360   40.3000  -18.3410 N.am    2  ASN2       -0.0877
     61 N          15.0750   40.5200  -15.2070 N.am    3  PHE3       -0.1960
     62 CA         16.2320   39.8490  -14.6240 C.3     3  PHE3        0.1771
     63 C          15.8780   39.2120  -13.3050 C.2     3  PHE3        0.2620
     64 O          14.8950   39.5670  -12.6840 O.2     3  PHE3       -0.2715
     65 CB         17.4120   40.8220  -14.4670 C.3     3  PHE3        0.0574
     66 CG         17.2780   41.8220  -13.3440 C.ar    3  PHE3       -0.0200
     67 CD2        18.1050   41.7070  -12.2190 C.ar    3  PHE3       -0.0042
     68 CD1        16.3930   42.8860  -13.4100 C.ar    3  PHE3       -0.0042
     69 CE2        18.0470   42.6510  -11.2110 C.ar    3  PHE3       -0.0003
     70 CE1        16.3270   43.8230  -12.3640 C.ar    3  PHE3       -0.0003
     71 CZ         17.1780   43.6950  -11.2840 C.ar    3  PHE3       -0.0000
     72 N          16.7040   38.2460  -12.8970 N.am    4  SER4       -0.1936
     73 CA         16.4870   37.5190  -11.6500 C.3     4  SER4        0.2055
     74 C          17.8300   37.2560  -10.9790 C.2     4  SER4        0.2643
     75 O          18.9090   37.3750  -11.6010 O.2     4  SER4       -0.2714
     76 CB         15.7700   36.1890  -11.9090 C.3     4  SER4        0.2130
     77 OG         14.5670   36.3220  -12.6400 O.3     4  SER4       -0.2179
     78 N          17.7560   36.9460   -9.6900 N.am    5  THR5       -0.1950
     79 CA         18.9450   36.5110   -8.9460 C.3     5  THR5        0.1897
     80 C          18.5570   35.3350   -8.0640 C.2     5  THR5        0.2313
     81 O          17.4120   35.2120   -7.6730 O.2     5  THR5       -0.2863
     82 CB         19.5370   37.6350   -8.0930 C.3     5  THR5        0.1794
     83 OG1        20.7170   37.1350   -7.4620 O.3     5  THR5       -0.2208
     84 CG2        18.5720   38.2090   -7.0760 C.3     5  THR5        0.0378
     85 N          20.3530   32.6350   -4.8490 N.3     1  PHE1       -0.1241
     86 CA         21.4610   32.2990   -3.9620 C.3     1  PHE1        0.1605
     87 C          20.9120   31.5550   -2.7720 C.2     1  PHE1        0.2264
     88 O          19.7320   31.6300   -2.4810 O.2     1  PHE1       -0.2867
     89 CB         22.2340   33.5450   -3.5060 C.3     1  PHE1        0.0534
     90 CG         21.3900   34.5820   -2.8510 C.ar    1  PHE1       -0.0203
     91 CD2        21.2240   34.5870   -1.4900 C.ar    1  PHE1       -0.0042
     92 CD1        20.7450   35.5630   -3.6030 C.ar    1  PHE1       -0.0042
     93 CE2        20.4170   35.5330   -0.8720 C.ar    1  PHE1       -0.0003
     94 CE1        19.9680   36.5010   -2.9950 C.ar    1  PHE1       -0.0003
     95 CZ         19.7820   36.4880   -1.6430 C.ar    1  PHE1       -0.0000
     96 N          24.1360   42.4760   -0.2080 N.3     1  ILE1       -0.1231
     97 CA         24.5630   42.3640   -1.6030 C.3     1  ILE1        0.1692
     98 C          24.1040   43.6620   -2.2760 C.2     1  ILE1        0.2592
     99 O          22.9160   43.9260   -2.3840 O.2     1  ILE1       -0.2718
    100 CB         23.9660   41.1520   -2.3260 C.3     1  ILE1        0.0266
    101 CG1        24.1060   39.8850   -1.4600 C.3     1  ILE1        0.0019
    102 CG2        24.6200   41.0000   -3.7120 C.3     1  ILE1        0.0020
    103 CD1        23.4720   38.6160   -2.0560 C.3     1  ILE1        0.0001
    104 N          25.0540   44.4720   -2.6970 N.am    2  ASN2       -0.1960
    105 CA         24.7490   45.8330   -3.1420 C.3     2  ASN2        0.1819
    106 C          25.1640   46.0130   -4.5960 C.2     2  ASN2        0.2621
    107 O          26.2980   45.7480   -4.9610 O.2     2  ASN2       -0.2715
    108 CB         25.4750   46.8160   -2.2250 C.3     2  ASN2        0.1195
    109 CG         24.9730   48.2650   -2.3550 C.2     2  ASN2        0.2630
    110 OD1        23.9980   48.5510   -3.0230 O.2     2  ASN2       -0.2716
    111 ND2        25.6250   49.1610   -1.6330 N.am    2  ASN2       -0.0877
    112 N          24.2120   46.4430   -5.4160 N.am    3  CYS3       -0.1954
    113 CA         24.4950   46.8400   -6.7960 C.3     3  CYS3        0.1843
    114 C          23.7840   48.1780   -7.0440 C.2     3  CYS3        0.2625
    115 O          23.1180   48.3610   -8.0400 O.2     3  CYS3       -0.2714
    116 CB         24.0320   45.7540   -7.7690 C.3     3  CYS3        0.0997
    117 SG         24.7750   45.8650   -9.4280 S.3     3  CYS3       -0.0797
    118 N          23.9210   49.0850   -6.0800 N.am    4  MET4       -0.1977
    119 CA         23.4110   50.4630   -6.1770 C.3     4  MET4        0.1605
    120 C          24.5560   51.4120   -6.4940 C.2     4  MET4        0.2287
    121 O          25.6430   51.2820   -5.9320 O.2     4  MET4       -0.2864
    122 CB         22.7900   50.9050   -4.8440 C.3     4  MET4        0.0413
    123 CG         21.4820   50.2300   -4.4150 C.3     4  MET4        0.0598
    124 SD         20.0630   50.7720   -5.3780 S.3     4  MET4       -0.1393
    125 CE         18.7310   49.8850   -4.5490 C.3     4  MET4        0.0692
    126 N          19.5720   51.2320   -8.8960 N.3     1  GLY1       -0.1210
    127 CA         20.0230   49.8460   -9.0020 C.3     1  GLY1        0.1956
    128 C          19.2340   48.8880   -8.1140 C.2     1  GLY1        0.2612
    129 O          18.0450   49.0810   -7.8960 O.2     1  GLY1       -0.2717
    130 N          19.9140   47.8410   -7.6490 N.am    2  TRP2       -0.1962
    131 CA         19.2880   46.8370   -6.7850 C.3     2  TRP2        0.1768
    132 C          20.1750   46.4620   -5.6070 C.2     2  TRP2        0.2619
    133 O          21.3900   46.6500   -5.6450 O.2     2  TRP2       -0.2715
    134 CB         18.9270   45.5710   -7.5910 C.3     2  TRP2        0.0553
    135 CG         20.0610   44.8780   -8.3000 C.2     2  TRP2       -0.0136
    136 CD1        20.4060   44.9920   -9.6190 C.2     2  TRP2        0.0907
    137 CD2        20.9580   43.9050   -7.7360 C.3     2  TRP2        0.0819
    138 NE1        21.4840   44.1920   -9.8930 N.2     2  TRP2       -0.2482
    139 CE2        21.8240   43.4850   -8.7740 C.2     2  TRP2        0.0665
    140 CE3        21.0950   43.3390   -6.4680 C.2     2  TRP2       -0.0164
    141 CZ2        22.8530   42.5500   -8.5660 C.2     2  TRP2        0.0153
    142 CZ3        22.0990   42.4010   -6.2670 C.2     2  TRP2       -0.0038
    143 CH2        22.9590   42.0150   -7.3240 C.2     2  TRP2        0.0009
    144 N          19.5510   45.9410   -4.5530 N.am    3  LYS3       -0.1963
    145 CA         20.3060   45.4420   -3.4170 C.3     3  LYS3        0.1728
    146 C          19.4820   44.4070   -2.6910 C.2     3  LYS3        0.2616
    147 O          18.2500   44.4490   -2.7070 O.2     3  LYS3       -0.2715
    148 CB         20.6940   46.5790   -2.4700 C.3     3  LYS3        0.0311
    149 CG         19.5290   47.3750   -1.9070 C.3     3  LYS3        0.0038
    150 CD         19.9760   48.3740   -0.8680 C.3     3  LYS3        0.0206
    151 CE         18.7700   49.0830   -0.2390 C.3     3  LYS3        0.1093
    152 NZ         19.1440   50.0940    0.8120 N.3     3  LYS3       -0.1314
    153 N          20.1840   43.4790   -2.0290 N.am    4  VAL4       -0.1977
    154 CA         19.6110   42.5930   -1.0410 C.3     4  VAL4        0.1596
    155 C          20.0360   43.1230    0.3260 C.2     4  VAL4        0.2287
    156 O          21.2210   43.4090    0.5490 O.2     4  VAL4       -0.2864
    157 CB         20.1280   41.1420   -1.1860 C.3     4  VAL4        0.0276
    158 CG2        19.4650   40.2250   -0.1260 C.3     4  VAL4        0.0022
    159 CG1        19.8780   40.5760   -2.5970 C.3     4  VAL4        0.0022
    160 N          14.4680   42.7800   -0.7950 N.3     1  TRP1       -0.1227
    161 CA         14.9600   43.1520   -2.1250 C.3     1  TRP1        0.1734
    162 C          14.4820   44.5540   -2.3670 C.2     1  TRP1        0.2596
    163 O          13.3020   44.8400   -2.1730 O.2     1  TRP1       -0.2718
    164 CB         14.3460   42.2440   -3.1670 C.3     1  TRP1        0.0527
    165 CG         14.6350   42.5600   -4.5920 C.2     1  TRP1       -0.0139
    166 CD1        13.7470   43.0240   -5.5080 C.2     1  TRP1        0.0907
    167 CD2        15.8840   42.3590   -5.2980 C.3     1  TRP1        0.0819
    168 NE1        14.3550   43.1240   -6.7500 N.2     1  TRP1       -0.2482
    169 CE2        15.6640   42.7230   -6.6420 C.2     1  TRP1        0.0665
    170 CE3        17.1620   41.9090   -4.9260 C.2     1  TRP1       -0.0164
    171 CZ2        16.6550   42.6210   -7.6010 C.2     1  TRP1        0.0153
    172 CZ3        18.1340   41.8240   -5.8830 C.2     1  TRP1       -0.0038
    173 CH2        17.8880   42.2030   -7.1960 C.2     1  TRP1        0.0009
    174 N          15.3790   45.4290   -2.8160 N.am    2  THR2       -0.1939
    175 CA         15.0170   46.8080   -3.1350 C.3     2  THR2        0.2028
    176 C          15.4840   47.1430   -4.5560 C.2     2  THR2        0.2642
    177 O          16.6400   46.8770   -4.9320 O.2     2  THR2       -0.2714
    178 CB         15.6480   47.8140   -2.1670 C.3     2  THR2        0.1808
    179 OG1        15.3280   47.4620   -0.8070 O.3     2  THR2       -0.2208
    180 CG2        15.1530   49.2480   -2.4590 C.3     2  THR2        0.0379
    181 N          14.5770   47.7440   -5.3200 N.am    3  LEU3       -0.1977
    182 CA         14.9010   48.3100   -6.6430 C.3     3  LEU3        0.1596
    183 C          14.7030   49.8080   -6.5930 C.2     3  LEU3        0.2287
    184 O          13.7760   50.2800   -5.9480 O.2     3  LEU3       -0.2864
    185 CB         13.9580   47.8200   -7.7480 C.3     3  LEU3        0.0297
    186 CG         13.9650   46.3970   -8.2500 C.3     3  LEU3        0.0022
    187 CD1        13.0110   46.2740   -9.4270 C.3     3  LEU3        0.0001
    188 CD2        15.3900   45.9860   -8.6840 C.3     3  LEU3        0.0001
    189 N          14.8160   35.8080   -6.5580 N.3     1  ILE1       -0.1245
    190 CA         14.1440   37.0810   -6.7640 C.3     1  ILE1        0.1561
    191 C          14.0490   37.3200   -8.2500 C.2     1  ILE1        0.2260
    192 O          15.0410   37.2910   -8.9550 O.2     1  ILE1       -0.2867
    193 CB         14.8500   38.2470   -6.0830 C.3     1  ILE1        0.0252
    194 CG1        14.8850   38.0040   -4.5550 C.3     1  ILE1        0.0019
    195 CG2        14.1140   39.5710   -6.3990 C.3     1  ILE1        0.0019
    196 CD1        16.0840   38.5610   -3.8470 C.3     1  ILE1        0.0001
    197 N          12.1990   39.7640  -11.5610 N.3     1  ASN1       -0.1240
    198 CA         11.7570   41.1240  -11.8600 C.3     1  ASN1        0.1653
    199 C          11.2270   41.1640  -13.2720 C.2     1  ASN1        0.2266
    200 O          11.9730   40.8810  -14.2300 O.2     1  ASN1       -0.2867
    201 CB         12.9020   42.1340  -11.7080 C.3     1  ASN1        0.1155
    202 CG         13.5370   42.0630  -10.3400 C.2     1  ASN1        0.2627
    203 OD1        13.0660   42.7170   -9.3940 O.2     1  ASN1       -0.2716
    204 ND2        14.5750   41.2690  -10.2170 N.am    1  ASN1       -0.0877
    205 N          22.0710   50.2500  -12.5450 N.3     1  ALA1       -0.1231
    206 CA         22.7950   49.6420  -11.4350 C.3     1  ALA1        0.1694
    207 C          24.3070   49.8580  -11.5610 C.2     1  ALA1        0.2592
    208 O          24.7840   50.4790  -12.4980 O.2     1  ALA1       -0.2718
    209 CB         22.4490   48.1300  -11.3680 C.3     1  ALA1        0.0304
    210 N          25.0500   49.3580  -10.5810 N.am    2  SER2       -0.1952
    211 CA         26.4930   49.4650  -10.5680 C.3     2  SER2        0.1924
    212 CB         27.1670   48.4570  -11.4800 C.2     2  SER2        0.2314
    213 OG         26.5890   47.4110  -11.7950 O.2     2  SER2       -0.2863
    214 C          26.9910   49.2500   -9.1340 C.3     2  SER2        0.2116
    215 O          28.3960   49.4040   -9.1000 O.3     2  SER2       -0.2180
    216 N          29.1790   44.4350   -7.9520 N.3     1  ILE1       -0.1231
    217 CA         28.3220   43.8850   -6.9280 C.3     1  ILE1        0.1692
    218 C          29.1910   43.6710   -5.7050 C.2     1  ILE1        0.2591
    219 O          30.2350   43.0140   -5.7860 O.2     1  ILE1       -0.2718
    220 CB         27.7270   42.5390   -7.3320 C.3     1  ILE1        0.0266
    221 CG1        27.0220   42.6660   -8.6770 C.3     1  ILE1        0.0019
    222 CG2        26.7290   42.0400   -6.2760 C.3     1  ILE1        0.0020
    223 CD1        26.6490   41.3290   -9.2800 C.3     1  ILE1        0.0001
    224 N          28.7710   44.2630   -4.5960 N.am    2  MET2       -0.1979
    225 CA         29.5280   44.2140   -3.3530 C.3     2  MET2        0.1605
    226 C          28.8090   43.2940   -2.3840 C.2     2  MET2        0.2287
    227 O          27.6960   43.5890   -1.9900 O.2     2  MET2       -0.2864
    228 CB         29.6490   45.6110   -2.7380 C.3     2  MET2        0.0413
    229 CG         30.2930   45.5960   -1.3740 C.3     2  MET2        0.0598
    230 SD         32.0420   45.1160   -1.4530 S.3     2  MET2       -0.1393
    231 CE         32.8360   46.6210   -1.9510 C.3     2  MET2        0.0692
    232 N          25.7550   32.1340   -5.7330 N.3     1  PHE1       -0.1227
    233 CA         25.1330   33.3370   -6.2700 C.3     1  PHE1        0.1736
    234 C          25.0340   33.2920   -7.8070 C.2     1  PHE1        0.2595
    235 O          26.0330   33.0010   -8.4900 O.2     1  PHE1       -0.2718
    236 CB         25.8780   34.5890   -5.8460 C.3     1  PHE1        0.0547
    237 CG         25.1530   35.8530   -6.2420 C.ar    1  PHE1       -0.0202
    238 CD2        24.1440   36.3830   -5.4330 C.ar    1  PHE1       -0.0042
    239 CD1        25.3940   36.4460   -7.4380 C.ar    1  PHE1       -0.0042
    240 CE2        23.4560   37.5100   -5.8230 C.ar    1  PHE1       -0.0003
    241 CE1        24.7190   37.5940   -7.8060 C.ar    1  PHE1       -0.0003
    242 CZ         23.7420   38.1060   -7.0100 C.ar    1  PHE1       -0.0000
    243 N          23.8400   33.5860   -8.3310 N.am    2  ASN2       -0.1960
    244 CA         23.5890   33.6790   -9.7740 C.3     2  ASN2        0.1819
    245 C          22.7640   34.9010  -10.1290 C.2     2  ASN2        0.2621
    246 O          21.9240   35.3320   -9.3660 O.2     2  ASN2       -0.2715
    247 CB         22.8110   32.4610  -10.2970 C.3     2  ASN2        0.1195
    248 CG         23.6430   31.2400  -10.4200 C.2     2  ASN2        0.2630
    249 OD1        23.8940   30.5420   -9.4380 O.2     2  ASN2       -0.2716
    250 ND2        24.0730   30.9520  -11.6270 N.am    2  ASN2       -0.0877
    251 N          23.0210   35.4290  -11.3190 N.am    3  LEU3       -0.1963
    252 CA         22.1960   36.4540  -11.9560 C.3     3  LEU3        0.1728
    253 C          21.7320   35.8740  -13.2750 C.2     3  LEU3        0.2616
    254 O          22.4680   35.1700  -13.9310 O.2     3  LEU3       -0.2715
    255 CB         23.0180   37.7150  -12.2420 C.3     3  LEU3        0.0311
    256 CG         23.3110   38.7030  -11.1360 C.3     3  LEU3        0.0022
    257 CD1        24.1330   39.8860  -11.6990 C.3     3  LEU3        0.0001
    258 CD2        22.0570   39.2170  -10.4710 C.3     3  LEU3        0.0001
    259 N          20.5000   36.2170  -13.6550 N.am    4  PHE4       -0.1960
    260 CA         19.8810   35.7430  -14.8880 C.3     4  PHE4        0.1771
    261 C          19.2870   36.9090  -15.6570 C.2     4  PHE4        0.2619
    262 O          18.7180   37.8190  -15.0440 O.2     4  PHE4       -0.2715
    263 CB         18.7380   34.7840  -14.6030 C.3     4  PHE4        0.0574
    264 CG         19.1170   33.6170  -13.7240 C.ar    4  PHE4       -0.0200
    265 CD1        19.4490   32.3930  -14.2760 C.ar    4  PHE4       -0.0042
    266 CD2        19.1450   33.7620  -12.3490 C.ar    4  PHE4       -0.0042
    267 CE1        19.8010   31.3380  -13.4650 C.ar    4  PHE4       -0.0003
    268 CE2        19.4940   32.6950  -11.5410 C.ar    4  PHE4       -0.0003
    269 CZ         19.8070   31.4980  -12.1090 C.ar    4  PHE4       -0.0000
    270 N          19.3710   36.8510  -16.9820 N.am    5  ASP5       -0.1973
    271 CA         18.8090   37.9140  -17.8300 C.3     5  ASP5        0.1651
    272 C          17.3680   37.6660  -18.2980 C.2     5  ASP5        0.2291
    273 O          16.9620   38.0650  -19.3940 O.2     5  ASP5       -0.2864
    274 CB         19.7430   38.2300  -18.9780 C.3     5  ASP5        0.0714
    275 CG         19.9500   37.0840  -19.9450 C.2     5  ASP5        0.0525
    276 OD2        19.3950   35.9760  -19.7510 O.co2   5  ASP5       -0.5491
    277 OD1        20.6820   37.3380  -20.9760 O.co2   5  ASP5       -0.5491
@<TRIPOS>UNITY_ATOM_ATTR
51 1
charge -1
276 1
charge -1
@<TRIPOS>BOND
     1     1     2    1
     2     2     5    1
     3     2     3    1
     4     3     4    2
     5     5     7    1
     6     5     6    1
     7     6     8    1
     8     9    10    1
     9    10    11    1
    10    10    13    1
    11    11    12    2
    12    13    14    1
    13    14    16    1
    14    14    15    1
    15    17    18    1
    16    18    21    1
    17    18    19    1
    18    19    25   am
    19    19    20    2
    20    21    23    1
    21    21    22    1
    22    22    24    1
    23    25    26    1
    24    26    27    1
    25    26    29    1
    26    27    28    2
    27    27    32   am
    28    29    31    1
    29    29    30    1
    30    32    33    1
    31    33    34    1
    32    33    36    1
    33    34    35    2
    34    36    37    1
    35    37    39   ar
    36    37    38   ar
    37    38    40   ar
    38    39    41   ar
    39    40    42   ar
    40    41    42   ar
    41    42    43    1
    42    44    45    1
    43    45    48    1
    44    45    46    1
    45    46    53   am
    46    46    47    2
    47    48    49    1
    48    49    50    1
    49    50    52   ar
    50    50    51   ar
    51    53    54    1
    52    54    57    1
    53    54    55    1
    54    55    56    2
    55    55    61   am
    56    57    58    1
    57    58    60   am
    58    58    59    2
    59    61    62    1
    60    62    65    1
    61    62    63    1
    62    63    72   am
    63    63    64    2
    64    65    66    1
    65    66    68   ar
    66    66    67   ar
    67    67    69   ar
    68    68    70   ar
    69    69    71   ar
    70    70    71   ar
    71    72    73    1
    72    73    76    1
    73    73    74    1
    74    74    75    2
    75    74    78   am
    76    76    77    1
    77    78    79    1
    78    79    82    1
    79    79    80    1
    80    80    81    2
    81    82    83    1
    82    82    84    1
    83    85    86    1
    84    86    89    1
    85    86    87    1
    86    87    88    2
    87    89    90    1
    88    90    92   ar
    89    90    91   ar
    90    91    93   ar
    91    92    94   ar
    92    93    95   ar
    93    94    95   ar
    94    96    97    1
    95    97   100    1
    96    97    98    1
    97    98   104   am
    98    98    99    2
    99   100   102    1
   100   100   101    1
   101   101   103    1
   102   104   105    1
   103   105   106    1
   104   105   108    1
   105   106   112   am
   106   106   107    2
   107   108   109    1
   108   109   110    2
   109   109   111   am
   110   112   113    1
   111   113   116    1
   112   113   114    1
   113   114   115    2
   114   114   118   am
   115   116   117    1
   116   118   119    1
   117   119   120    1
   118   119   122    1
   119   120   121    2
   120   122   123    1
   121   123   124    1
   122   124   125    1
   123   126   127    1
   124   127   128    1
   125   128   129    2
   126   128   130   am
   127   130   131    1
   128   131   134    1
   129   131   132    1
   130   132   133    2
   131   132   144   am
   132   134   135    1
   133   135   136    2
   134   135   137    1
   135   136   138    1
   136   137   139    1
   137   137   140    1
   138   138   139    2
   139   139   141    1
   140   140   142    2
   141   141   143    2
   142   142   143    1
   143   144   145    1
   144   145   146    1
   145   145   148    1
   146   146   147    2
   147   146   153   am
   148   148   149    1
   149   149   150    1
   150   150   151    1
   151   151   152    1
   152   153   154    1
   153   154   157    1
   154   154   155    1
   155   155   156    2
   156   157   159    1
   157   157   158    1
   158   160   161    1
   159   161   164    1
   160   161   162    1
   161   162   174   am
   162   162   163    2
   163   164   165    1
   164   165   166    2
   165   165   167    1
   166   166   168    1
   167   167   169    1
   168   167   170    1
   169   168   169    2
   170   169   171    1
   171   170   172    2
   172   171   173    2
   173   172   173    1
   174   174   175    1
   175   175   176    1
   176   175   178    1
   177   176   181   am
   178   176   177    2
   179   178   180    1
   180   178   179    1
   181   181   182    1
   182   182   185    1
   183   182   183    1
   184   183   184    2
   185   185   186    1
   186   186   187    1
   187   186   188    1
   188   189   190    1
   189   190   191    1
   190   190   193    1
   191   191   192    2
   192   193   195    1
   193   193   194    1
   194   194   196    1
   195   197   198    1
   196   198   199    1
   197   198   201    1
   198   199   200    2
   199   201   202    1
   200   202   204   am
   201   202   203    2
   202   205   206    1
   203   206   207    1
   204   206   209    1
   205   207   208    2
   206   207   210   am
   207   210   211    1
   208   211   212    1
   209   211   214    1
   210   212   213    2
   211   214   215    1
   212   216   217    1
   213   217   220    1
   214   217   218    1
   215   218   219    2
   216   218   224   am
   217   220   221    1
   218   220   222    1
   219   221   223    1
   220   224   225    1
   221   225   228    1
   222   225   226    1
   223   226   227    2
   224   228   229    1
   225   229   230    1
   226   230   231    1
   227   232   233    1
   228   233   234    1
   229   233   236    1
   230   234   235    2
   231   234   243   am
   232   236   237    1
   233   237   239   ar
   234   237   238   ar
   235   238   240   ar
   236   239   241   ar
   237   240   242   ar
   238   241   242   ar
   239   243   244    1
   240   244   247    1
   241   244   245    1
   242   245   251   am
   243   245   246    2
   244   247   248    1
   245   248   250   am
   246   248   249    2
   247   251   252    1
   248   252   253    1
   249   252   255    1
   250   253   254    2
   251   253   259   am
   252   255   256    1
   253   256   257    1
   254   256   258    1
   255   259   260    1
   256   260   261    1
   257   260   263    1
   258   261   270   am
   259   261   262    2
   260   263   264    1
   261   264   265   ar
   262   264   266   ar
   263   265   267   ar
   264   266   268   ar
   265   267   269   ar
   266   268   269   ar
   267   270   271    1
   268   271   274    1
   269   271   272    1
   270   272   273    2
   271   274   275    1
   272   275   277   ar
   273   275   276   ar
