@<TRIPOS>MOLECULE
./1npc/ligand.pdb
 15 15 0 0 0
SMALL
GASTEIGER

@<TRIPOS>ATOM
      1  CA        36.4200   41.3010   -3.7440 C.3     1  BZS1        0.0521
      2  C         37.9680   41.0650   -3.8420 C.2     1  BZS1        0.0509
      3  CB        35.9910   42.4740   -2.9230 C.3     1  BZS1        0.0324
      4  CG        36.7100   42.5820   -1.6470 C.ar    1  BZS1       -0.0218
      5  CD1       36.5600   41.6190   -0.6470 C.ar    1  BZS1       -0.0043
      6  CD2       37.4690   43.7280   -1.3990 C.ar    1  BZS1       -0.0043
      7  CE1       37.2570   41.7330    0.5610 C.ar    1  BZS1       -0.0003
      8  CE2       38.1630   43.8580   -0.1950 C.ar    1  BZS1       -0.0003
      9  CZ        38.0480   42.8710    0.7840 C.ar    1  BZS1       -0.0000
     10  C1        35.7020   42.4860   -5.8790 C.2     1  BZS1        0.3652
     11  O1        36.7230   42.5360   -6.5600 O.co2   1  BZS1       -0.2456
     12  C2        35.6010   41.2570   -5.0520 C.3     1  BZS1        0.1199
     13  O2        34.8360   43.4240   -5.7800 O.co2   1  BZS1       -0.2456
     14  O3        38.7640   42.0370   -3.8280 O.co2   1  BZS1       -0.5492
     15  O4        38.3770   39.8750   -3.7830 O.co2   1  BZS1       -0.5492
@<TRIPOS>UNITY_ATOM_ATTR
14 1
charge -1
@<TRIPOS>BOND
     1     1     2    1
     2     1     3    1
     3     1    12    1
     4     2    14   ar
     5     2    15   ar
     6     3     4    1
     7     4     5   ar
     8     4     6   ar
     9     5     7   ar
    10     6     8   ar
    11     7     9   ar
    12     8     9   ar
    13    10    11   ar
    14    10    12    1
    15    10    13   ar
