@<TRIPOS>MOLECULE
./2hbl/protein.pdb
 266 265 0 0 0
SMALL
GASTEIGER

@<TRIPOS>ATOM
      1 N          63.8890    7.9660   -5.7400 N.3     1  GLN1       -0.1245
      2 CA         64.0780    6.5290   -5.9040 C.3     1  GLN1        0.1566
      3 C          63.9090    6.1630   -7.3750 C.2     1  GLN1        0.2260
      4 O          64.6910    5.3940   -7.9300 O.2     1  GLN1       -0.2867
      5 CB         63.0570    5.7350   -5.0840 C.3     1  GLN1        0.0367
      6 CG         63.2250    5.8210   -3.5880 C.3     1  GLN1        0.0905
      7 CD         62.3270    6.8620   -2.9650 C.2     1  GLN1        0.2608
      8 OE1        61.5640    6.5620   -2.0500 O.2     1  GLN1       -0.2717
      9 NE2        62.4120    8.0950   -3.4530 N.am    1  GLN1       -0.0878
     10 N          66.9860    5.7330   -9.2960 N.3     1  PHE1       -0.1241
     11 CA         68.0610    4.8410   -8.8780 C.3     1  PHE1        0.1605
     12 C          68.3360    3.8030   -9.9670 C.2     1  PHE1        0.2264
     13 O          67.4270    3.3840  -10.6850 O.2     1  PHE1       -0.2867
     14 CB         67.7090    4.1320   -7.5610 C.3     1  PHE1        0.0534
     15 CG         67.6550    5.0460   -6.3590 C.ar    1  PHE1       -0.0203
     16 CD1        68.3050    6.2810   -6.3630 C.ar    1  PHE1       -0.0042
     17 CD2        66.9790    4.6530   -5.2070 C.ar    1  PHE1       -0.0042
     18 CE1        68.2830    7.1090   -5.2340 C.ar    1  PHE1       -0.0003
     19 CE2        66.9500    5.4720   -4.0730 C.ar    1  PHE1       -0.0003
     20 CZ         67.6050    6.7040   -4.0890 C.ar    1  PHE1       -0.0000
     21 N          69.4540    0.8160   -9.3530 N.3     1  SER1       -0.1203
     22 CA         68.9610   -0.4350   -8.7900 C.3     1  SER1        0.2005
     23 C          67.6680   -0.1440   -8.0330 C.2     1  SER1        0.2461
     24 O          67.6740    0.5900   -7.0430 O.2     1  SER1       -0.2732
     25 CB         69.9920   -1.0270   -7.8280 C.3     1  SER1        0.2103
     26 OG         71.2440   -1.2070   -8.4640 O.3     1  SER1       -0.2182
     27 N          66.5440   -0.7190   -8.4900 N.am    2  PRO2       -0.2717
     28 CA         65.2300   -0.5280   -7.8650 C.3     2  PRO2        0.1535
     29 C          65.1720   -1.0410   -6.4310 C.2     2  PRO2        0.2598
     30 O          65.7490   -2.0810   -6.1110 O.2     2  PRO2       -0.2715
     31 CB         64.2990   -1.3000   -8.7910 C.3     2  PRO2        0.0310
     32 CG         65.1750   -2.4300   -9.2630 C.3     2  PRO2        0.0237
     33 CD         66.4630   -1.7070   -9.5810 C.3     2  PRO2        0.0939
     34 N          64.4700   -0.3080   -5.5720 N.am    3  ILE3       -0.1964
     35 CA         64.3430   -0.6870   -4.1680 C.3     3  ILE3        0.1727
     36 C          63.5110   -1.9520   -4.0050 C.2     3  ILE3        0.2616
     37 O          62.6970   -2.2830   -4.8650 O.2     3  ILE3       -0.2715
     38 CB         63.7080    0.4560   -3.3240 C.3     3  ILE3        0.0290
     39 CG1        62.3640    0.8760   -3.9160 C.3     3  ILE3        0.0022
     40 CG2        64.6430    1.6610   -3.2880 C.3     3  ILE3        0.0023
     41 CD1        61.2360   -0.0930   -3.6470 C.3     3  ILE3        0.0001
     42 N          63.7280   -2.6560   -2.8980 N.am    4  ASP4       -0.1959
     43 CA         63.0010   -3.8810   -2.6110 C.3     4  ASP4        0.1783
     44 C          62.5810   -3.9220   -1.1540 C.2     4  ASP4        0.2620
     45 O          63.4120   -4.1070   -0.2670 O.2     4  ASP4       -0.2715
     46 CB         63.8650   -5.1090   -2.9360 C.3     4  ASP4        0.0728
     47 CG         63.2630   -6.4080   -2.4090 C.2     4  ASP4        0.0526
     48 OD1        62.0210   -6.5510   -2.4360 O.co2   4  ASP4       -0.5491
     49 OD2        64.0330   -7.2900   -1.9760 O.co2   4  ASP4       -0.5491
     50 N          61.2860   -3.7590   -0.9110 N.am    5  ASN5       -0.1958
     51 CA         60.7680   -3.7740    0.4500 C.3     5  ASN5        0.1819
     52 C          60.1020   -5.1000    0.7820 C.2     5  ASN5        0.2622
     53 O          59.5690   -5.2730    1.8780 O.2     5  ASN5       -0.2715
     54 CB         59.7780   -2.6230    0.6370 C.3     5  ASN5        0.1195
     55 CG         60.4160   -1.2680    0.3990 C.2     5  ASN5        0.2630
     56 OD1        59.7390   -0.3040    0.0510 O.2     5  ASN5       -0.2716
     57 ND2        61.7290   -1.1870    0.5930 N.am    5  ASN5       -0.0877
     58 N          60.1480   -6.0390   -0.1610 N.am    6  SER6       -0.1950
     59 CA         59.5380   -7.3550    0.0370 C.3     6  SER6        0.1924
     60 C          60.1040   -8.0060    1.2970 C.2     6  SER6        0.2314
     61 O          59.3660   -8.6230    2.0700 O.2     6  SER6       -0.2863
     62 CB         59.7970   -8.2600   -1.1740 C.3     6  SER6        0.2116
     63 OG         61.1410   -8.7090   -1.2010 O.3     6  SER6       -0.2180
     64 N          64.4960  -11.9690    2.3420 N.3     1  HIS1       -0.1227
     65 CA         65.7280  -12.5610    2.8590 C.3     1  HIS1        0.1734
     66 C          66.4170  -11.5760    3.7930 C.2     1  HIS1        0.2438
     67 O          66.0330  -10.4110    3.8680 O.2     1  HIS1       -0.2733
     68 CB         66.6790  -12.9050    1.7120 C.3     1  HIS1        0.0718
     69 CG         67.0250  -11.7330    0.8480 C.2     1  HIS1        0.0650
     70 ND1        66.2490  -11.3430   -0.2220 N.2     1  HIS1       -0.2310
     71 CD2        68.0400  -10.8410    0.9220 C.3     1  HIS1        0.1683
     72 CE1        66.7720  -10.2600   -0.7700 C.2     1  HIS1        0.1939
     73 NE2        67.8590   -9.9350   -0.0950 N.2     1  HIS1       -0.2440
     74 N          67.4330  -12.0390    4.5370 N.am    2  PRO2       -0.2718
     75 CA         68.1480  -11.1480    5.4550 C.3     2  PRO2        0.1535
     76 C          68.9040  -10.1030    4.6470 C.2     2  PRO2        0.2599
     77 O          69.1820  -10.3110    3.4650 O.2     2  PRO2       -0.2715
     78 CB         69.0930  -12.0940    6.1900 C.3     2  PRO2        0.0310
     79 CG         68.3460  -13.3960    6.1670 C.3     2  PRO2        0.0237
     80 CD         67.8370  -13.4370    4.7500 C.3     2  PRO2        0.0939
     81 N          69.2350   -8.9810    5.2790 N.am    3  PHE3       -0.1960
     82 CA         69.9610   -7.9250    4.5860 C.3     3  PHE3        0.1771
     83 C          71.2490   -8.4510    3.9680 C.2     3  PHE3        0.2619
     84 O          71.9950   -9.1900    4.6070 O.2     3  PHE3       -0.2715
     85 CB         70.3100   -6.7870    5.5440 C.3     3  PHE3        0.0574
     86 CG         71.2220   -5.7630    4.9370 C.ar    3  PHE3       -0.0200
     87 CD1        70.7630   -4.9220    3.9230 C.ar    3  PHE3       -0.0042
     88 CD2        72.5580   -5.6890    5.3200 C.ar    3  PHE3       -0.0042
     89 CE1        71.6220   -4.0230    3.2930 C.ar    3  PHE3       -0.0003
     90 CE2        73.4280   -4.7970    4.6990 C.ar    3  PHE3       -0.0003
     91 CZ         72.9590   -3.9600    3.6780 C.ar    3  PHE3       -0.0000
     92 N          71.5120   -8.0600    2.7260 N.am    4  ILE4       -0.1964
     93 CA         72.7270   -8.4880    2.0430 C.3     4  ILE4        0.1712
     94 C          73.6320   -7.2860    1.7960 C.2     4  ILE4        0.2458
     95 O          73.2360   -6.3370    1.1130 O.2     4  ILE4       -0.2730
     96 CB         72.4290   -9.1120    0.6680 C.3     4  ILE4        0.0289
     97 CG1        71.3090  -10.1450    0.7740 C.3     4  ILE4        0.0022
     98 CG2        73.6830   -9.7760    0.1330 C.3     4  ILE4        0.0023
     99 CD1        70.9370  -10.7540   -0.5700 C.3     4  ILE4        0.0001
    100 N          74.8600   -7.3050    2.3480 N.am    5  PRO5       -0.2716
    101 CA         75.7820   -6.1820    2.1470 C.3     5  PRO5        0.1536
    102 C          75.9870   -5.8800    0.6670 C.2     5  PRO5        0.2598
    103 O          76.1610   -6.7910   -0.1410 O.2     5  PRO5       -0.2715
    104 CB         77.0610   -6.6470    2.8490 C.3     5  PRO5        0.0310
    105 CG         76.9360   -8.1430    2.8750 C.3     5  PRO5        0.0237
    106 CD         75.4820   -8.3480    3.1780 C.3     5  PRO5        0.0939
    107 N          75.9500   -4.5940    0.3250 N.am    6  LEU6       -0.1978
    108 CA         76.1010   -4.1380   -1.0540 C.3     6  LEU6        0.1596
    109 C          77.5570   -4.0890   -1.4860 C.2     6  LEU6        0.2287
    110 O          77.8680   -3.7240   -2.6200 O.2     6  LEU6       -0.2864
    111 CB         75.4840   -2.7480   -1.1960 C.3     6  LEU6        0.0297
    112 CG         74.0470   -2.6270   -0.6810 C.3     6  LEU6        0.0022
    113 CD2        73.6630   -1.1640   -0.5790 C.3     6  LEU6        0.0001
    114 CD1        73.1010   -3.3740   -1.6040 C.3     6  LEU6        0.0001
    115 N          81.1180   -5.0120   -2.8290 N.3     1  LYS1       -0.1245
    116 CA         81.6530   -5.8960   -3.8620 C.3     1  LYS1        0.1561
    117 C          83.1710   -5.9810   -3.7670 C.2     1  LYS1        0.2260
    118 O          83.7700   -6.9950   -4.1230 O.2     1  LYS1       -0.2867
    119 CB         81.2560   -5.4080   -5.2540 C.3     1  LYS1        0.0271
    120 CG         79.8720   -5.8390   -5.6990 C.3     1  LYS1        0.0035
    121 CD         78.7800   -5.2220   -4.8400 C.3     1  LYS1        0.0206
    122 CE         77.3910   -5.6160   -5.3340 C.3     1  LYS1        0.1093
    123 NZ         76.3050   -4.8910   -4.6080 N.3     1  LYS1       -0.1314
    124 N          59.6350    7.3650    1.7740 N.3     1  SER1       -0.1202
    125 CA         60.4330    6.1590    1.5380 C.3     1  SER1        0.2020
    126 C          60.0620    5.1880    2.6440 C.2     1  SER1        0.2619
    127 O          59.7230    5.6220    3.7520 O.2     1  SER1       -0.2717
    128 CB         61.9320    6.4730    1.6270 C.3     1  SER1        0.2103
    129 OG         62.7160    5.2890    1.7380 O.3     1  SER1       -0.2182
    130 N          60.1240    3.8870    2.3720 N.am    2  TYR2       -0.1961
    131 CA         59.7630    2.9200    3.4030 C.3     2  TYR2        0.1771
    132 C          60.8350    2.7440    4.4810 C.2     2  TYR2        0.2620
    133 O          60.5550    2.9230    5.6650 O.2     2  TYR2       -0.2715
    134 CB         59.4220    1.5550    2.7930 C.3     2  TYR2        0.0574
    135 CG         58.8980    0.6100    3.8400 C.ar    2  TYR2       -0.0198
    136 CD2        57.6420    0.8030    4.4060 C.ar    2  TYR2       -0.0009
    137 CD1        59.7010   -0.4030    4.3500 C.ar    2  TYR2       -0.0009
    138 CE2        57.1980    0.0160    5.4690 C.ar    2  TYR2        0.0417
    139 CE1        59.2720   -1.1980    5.4090 C.ar    2  TYR2        0.0417
    140 CZ         58.0240   -0.9820    5.9670 C.ar    2  TYR2        0.1957
    141 OH         57.6170   -1.7460    7.0370 O.3     2  TYR2       -0.2866
    142 N          62.0490    2.3720    4.0860 N.am    3  TYR3       -0.1960
    143 CA         63.1420    2.2100    5.0530 C.3     3  TYR3        0.1771
    144 C          63.8340    3.5590    5.2700 C.2     3  TYR3        0.2620
    145 O          64.3510    3.8470    6.3520 O.2     3  TYR3       -0.2715
    146 CB         64.1930    1.2180    4.5450 C.3     3  TYR3        0.0574
    147 CG         63.7350   -0.2160    4.4280 C.ar    3  TYR3       -0.0198
    148 CD2        63.2140   -0.8930    5.5250 C.ar    3  TYR3       -0.0009
    149 CD1        63.8510   -0.9030    3.2220 C.ar    3  TYR3       -0.0009
    150 CE2        62.8180   -2.2210    5.4290 C.ar    3  TYR3        0.0417
    151 CE1        63.4590   -2.2420    3.1100 C.ar    3  TYR3        0.0417
    152 CZ         62.9410   -2.8930    4.2180 C.ar    3  TYR3        0.1957
    153 OH         62.5380   -4.2110    4.1120 O.3     3  TYR3       -0.2866
    154 N          63.8480    4.3770    4.2200 N.am    4  GLY4       -0.1940
    155 CA         64.4840    5.6750    4.3040 C.3     4  GLY4        0.2014
    156 C          65.6160    5.7710    3.3090 C.2     4  GLY4        0.2638
    157 O          66.0690    4.7520    2.7750 O.2     4  GLY4       -0.2714
    158 N          66.0700    6.9940    3.0450 N.am    5  ILE5       -0.1977
    159 CA         67.1620    7.2050    2.1060 C.3     5  ILE5        0.1596
    160 C          68.1150    8.3120    2.5570 C.2     5  ILE5        0.2287
    161 O          67.6880    9.3380    3.1020 O.2     5  ILE5       -0.2864
    162 CB         66.6310    7.5580    0.6900 C.3     5  ILE5        0.0276
    163 CG1        65.7210    8.7870    0.7600 C.3     5  ILE5        0.0022
    164 CG2        65.8660    6.3710    0.1080 C.3     5  ILE5        0.0022
    165 CD1        65.2910    9.3060   -0.5930 C.3     5  ILE5        0.0001
    166 N          74.5100    7.4320   -5.4920 N.3     1  ARG1       -0.1231
    167 CA         74.1820    6.3010   -4.6320 C.3     1  ARG1        0.1694
    168 C          74.9670    5.0320   -4.9660 C.2     1  ARG1        0.2591
    169 O          75.4970    4.3640   -4.0740 O.2     1  ARG1       -0.2718
    170 CB         72.6780    6.0170   -4.7210 C.3     1  ARG1        0.0321
    171 CG         72.1490    4.9920   -3.7260 C.3     1  ARG1        0.0489
    172 CD         70.6780    4.6870   -4.0060 C.3     1  ARG1        0.2205
    173 NE         70.1070    3.6810   -3.1050 N.pl3   1  ARG1       -0.0865
    174 CZ         69.5740    3.9460   -1.9170 C.cat   1  ARG1        0.5346
    175 NH1        69.5330    5.1950   -1.4700 N.pl3   1  ARG1        0.1354
    176 NH2        69.0720    2.9650   -1.1750 N.pl3   1  ARG1        0.1354
    177 N          75.0490    4.7080   -6.2520 N.am    2  GLU2       -0.1979
    178 CA         75.7480    3.5080   -6.6860 C.3     2  GLU2        0.1600
    179 C          77.2610    3.6550   -6.7900 C.2     2  GLU2        0.2287
    180 O          77.9710    2.6570   -6.8660 O.2     2  GLU2       -0.2864
    181 CB         75.1990    3.0360   -8.0410 C.3     2  GLU2        0.0356
    182 CG         73.8300    2.3480   -7.9820 C.3     2  GLU2        0.0439
    183 CD         72.6700    3.3160   -7.7680 C.2     2  GLU2        0.0504
    184 OE2        71.5300    2.8410   -7.5730 O.co2   2  GLU2       -0.5492
    185 OE1        72.8910    4.5480   -7.8060 O.co2   2  GLU2       -0.5492
    186 N          80.5500    3.7340   -3.1050 N.3     1  HIS1       -0.1241
    187 CA         81.2540    2.6230   -2.4830 C.3     1  HIS1        0.1618
    188 C          82.7810    2.7750   -2.5240 C.2     1  HIS1        0.2264
    189 O          83.4860    2.2070   -1.6880 O.2     1  HIS1       -0.2867
    190 CB         80.8520    1.2890   -3.1340 C.3     1  HIS1        0.0704
    191 CG         81.2800    1.1510   -4.5620 C.2     1  HIS1        0.0649
    192 ND1        80.4900    1.5500   -5.6200 N.2     1  HIS1       -0.2310
    193 CD2        82.4260    0.6790   -5.1060 C.3     1  HIS1        0.1683
    194 CE1        81.1310    1.3300   -6.7540 C.2     1  HIS1        0.1939
    195 NE2        82.3090    0.8030   -6.4700 N.2     1  HIS1       -0.2440
    196 N          75.8040    1.5750    5.4180 N.3     1  GLN1       -0.1231
    197 CA         75.8220    0.2440    4.8100 C.3     1  GLN1        0.1698
    198 C          74.5250   -0.0390    4.0540 C.2     1  GLN1        0.2592
    199 O          74.5490   -0.4720    2.9010 O.2     1  GLN1       -0.2718
    200 CB         76.0760   -0.8270    5.8800 C.3     1  GLN1        0.0381
    201 CG         75.0140   -0.9060    6.9540 C.3     1  GLN1        0.0905
    202 CD         75.4420   -1.7490    8.1380 C.2     1  GLN1        0.2608
    203 OE1        76.3800   -1.4000    8.8550 O.2     1  GLN1       -0.2717
    204 NE2        74.7580   -2.8670    8.3500 N.am    1  GLN1       -0.0878
    205 N          73.3930    0.2390    4.6910 N.am    2  ARG2       -0.1966
    206 CA         72.1040    0.0090    4.0580 C.3     2  ARG2        0.1729
    207 C          71.9400    0.6450    2.6810 C.2     2  ARG2        0.2616
    208 O          71.3600    0.0290    1.7960 O.2     2  ARG2       -0.2715
    209 CB         70.9590    0.4810    4.9690 C.3     2  ARG2        0.0348
    210 CG         69.6420    0.7010    4.2130 C.3     2  ARG2        0.0492
    211 CD         68.4010    0.6640    5.0940 C.3     2  ARG2        0.2205
    212 NE         68.2150    1.8230    5.9680 N.pl3   2  ARG2       -0.0865
    213 CZ         68.2240    3.0940    5.5700 C.cat   2  ARG2        0.5346
    214 NH1        68.4290    3.4010    4.2990 N.pl3   2  ARG2        0.1354
    215 NH2        67.9840    4.0610    6.4440 N.pl3   2  ARG2        0.1354
    216 N          72.4520    1.8580    2.4830 N.am    3  ASP3       -0.1959
    217 CA         72.2860    2.5440    1.1950 C.3     3  ASP3        0.1783
    218 C          73.5030    2.6780    0.2970 C.2     3  ASP3        0.2620
    219 O          73.3660    2.7750   -0.9240 O.2     3  ASP3       -0.2715
    220 CB         71.7550    3.9660    1.4140 C.3     3  ASP3        0.0728
    221 CG         70.3420    3.9990    1.9500 C.2     3  ASP3        0.0526
    222 OD2        69.8570    2.9520    2.4320 O.co2   3  ASP3       -0.5491
    223 OD1        69.7240    5.0860    1.8950 O.co2   3  ASP3       -0.5491
    224 N          74.6940    2.6910    0.8810 N.am    4  LEU4       -0.1963
    225 CA         75.8920    2.9170    0.0840 C.3     4  LEU4        0.1728
    226 C          76.9640    1.8530    0.2120 C.2     4  LEU4        0.2616
    227 O          78.0230    1.9540   -0.4020 O.2     4  LEU4       -0.2715
    228 CB         76.4760    4.2780    0.4690 C.3     4  LEU4        0.0311
    229 CG         75.4120    5.3630    0.6780 C.3     4  LEU4        0.0022
    230 CD2        76.0040    6.5750    1.4040 C.3     4  LEU4        0.0001
    231 CD1        74.8410    5.7660   -0.6800 C.3     4  LEU4        0.0001
    232 N          76.6950    0.8330    1.0120 N.am    5  GLY5       -0.1955
    233 CA         77.6800   -0.2110    1.1790 C.3     5  GLY5        0.1869
    234 C          79.0010    0.3610    1.6560 C.2     5  GLY5        0.2309
    235 O          80.0720   -0.0570    1.2050 O.2     5  GLY5       -0.2863
    236 N          73.0900   -3.6760   10.2030 N.3     1  PHE1       -0.1241
    237 CA         71.7150   -3.4220    9.7960 C.3     1  PHE1        0.1605
    238 C          71.0070   -4.7110    9.3720 C.2     1  PHE1        0.2264
    239 O          71.5620   -5.5210    8.6230 O.2     1  PHE1       -0.2867
    240 CB         71.6680   -2.4360    8.6240 C.3     1  PHE1        0.0534
    241 CG         70.3000   -2.2900    8.0240 C.ar    1  PHE1       -0.0203
    242 CD2        69.2810   -1.6510    8.7290 C.ar    1  PHE1       -0.0042
    243 CD1        70.0130   -2.8380    6.7790 C.ar    1  PHE1       -0.0042
    244 CE2        67.9950   -1.5620    8.2050 C.ar    1  PHE1       -0.0003
    245 CE1        68.7270   -2.7540    6.2440 C.ar    1  PHE1       -0.0003
    246 CZ         67.7170   -2.1160    6.9600 C.ar    1  PHE1       -0.0000
    247 N          66.7800   -6.3760    8.5210 N.3     1  TYR1       -0.1241
    248 CA         65.3430   -6.1640    8.3750 C.3     1  TYR1        0.1605
    249 C          64.6440   -6.6650    9.6370 C.2     1  TYR1        0.2264
    250 O          65.0620   -7.6610   10.2270 O.2     1  TYR1       -0.2867
    251 CB         64.8190   -6.9270    7.1630 C.3     1  TYR1        0.0534
    252 CG         65.4140   -6.4850    5.8450 C.ar    1  TYR1       -0.0201
    253 CD2        65.2620   -5.1740    5.3910 C.ar    1  TYR1       -0.0009
    254 CD1        66.1210   -7.3790    5.0440 C.ar    1  TYR1       -0.0009
    255 CE2        65.7980   -4.7670    4.1680 C.ar    1  TYR1        0.0417
    256 CE1        66.6630   -6.9800    3.8190 C.ar    1  TYR1        0.0417
    257 CZ         66.4970   -5.6730    3.3870 C.ar    1  TYR1        0.1957
    258 OH         67.0310   -5.2800    2.1750 O.3     1  TYR1       -0.2866
    259 N          56.6370    2.1000   -1.5710 N.3     1  ASP1       -0.1241
    260 CA         57.8710    2.5770   -0.9390 C.3     1  ASP1        0.1616
    261 C          57.6680    3.9640   -0.3600 C.2     1  ASP1        0.2264
    262 O          58.2590    4.9400   -0.8070 O.2     1  ASP1       -0.2867
    263 CB         59.0380    2.5870   -1.9320 C.3     1  ASP1        0.0687
    264 CG         60.3740    2.9420   -1.2690 C.2     1  ASP1        0.0522
    265 OD2        60.5730    2.6080   -0.0720 O.co2   1  ASP1       -0.5491
    266 OD1        61.2340    3.5390   -1.9550 O.co2   1  ASP1       -0.5491
@<TRIPOS>UNITY_ATOM_ATTR
48 1
charge -1
184 1
charge -1
222 1
charge -1
265 1
charge -1
@<TRIPOS>BOND
     1     1     2    1
     2     2     3    1
     3     2     5    1
     4     3     4    2
     5     5     6    1
     6     6     7    1
     7     7     9   am
     8     7     8    2
     9    10    11    1
    10    11    12    1
    11    11    14    1
    12    12    13    2
    13    14    15    1
    14    15    16   ar
    15    15    17   ar
    16    16    18   ar
    17    17    19   ar
    18    18    20   ar
    19    19    20   ar
    20    21    22    1
    21    22    23    1
    22    22    25    1
    23    23    27   am
    24    23    24    2
    25    25    26    1
    26    27    33    1
    27    27    28    1
    28    28    31    1
    29    28    29    1
    30    29    30    2
    31    29    34   am
    32    31    32    1
    33    32    33    1
    34    34    35    1
    35    35    36    1
    36    35    38    1
    37    36    37    2
    38    36    42   am
    39    38    39    1
    40    38    40    1
    41    39    41    1
    42    42    43    1
    43    43    46    1
    44    43    44    1
    45    44    50   am
    46    44    45    2
    47    46    47    1
    48    47    48   ar
    49    47    49   ar
    50    50    51    1
    51    51    54    1
    52    51    52    1
    53    52    58   am
    54    52    53    2
    55    54    55    1
    56    55    56    2
    57    55    57   am
    58    58    59    1
    59    59    62    1
    60    59    60    1
    61    60    61    2
    62    62    63    1
    63    64    65    1
    64    65    68    1
    65    65    66    1
    66    66    67    2
    67    66    74   am
    68    68    69    1
    69    69    70    2
    70    69    71    1
    71    70    72    1
    72    71    73    1
    73    72    73    2
    74    74    80    1
    75    74    75    1
    76    75    76    1
    77    75    78    1
    78    76    77    2
    79    76    81   am
    80    78    79    1
    81    79    80    1
    82    81    82    1
    83    82    83    1
    84    82    85    1
    85    83    92   am
    86    83    84    2
    87    85    86    1
    88    86    87   ar
    89    86    88   ar
    90    87    89   ar
    91    88    90   ar
    92    89    91   ar
    93    90    91   ar
    94    92    93    1
    95    93    96    1
    96    93    94    1
    97    94    95    2
    98    94   100   am
    99    96    98    1
   100    96    97    1
   101    97    99    1
   102   100   101    1
   103   100   106    1
   104   101   102    1
   105   101   104    1
   106   102   103    2
   107   102   107   am
   108   104   105    1
   109   105   106    1
   110   107   108    1
   111   108   109    1
   112   108   111    1
   113   109   110    2
   114   111   112    1
   115   112   114    1
   116   112   113    1
   117   115   116    1
   118   116   119    1
   119   116   117    1
   120   117   118    2
   121   119   120    1
   122   120   121    1
   123   121   122    1
   124   122   123    1
   125   124   125    1
   126   125   128    1
   127   125   126    1
   128   126   130   am
   129   126   127    2
   130   128   129    1
   131   130   131    1
   132   131   134    1
   133   131   132    1
   134   132   142   am
   135   132   133    2
   136   134   135    1
   137   135   137   ar
   138   135   136   ar
   139   136   138   ar
   140   137   139   ar
   141   138   140   ar
   142   139   140   ar
   143   140   141    1
   144   142   143    1
   145   143   146    1
   146   143   144    1
   147   144   154   am
   148   144   145    2
   149   146   147    1
   150   147   149   ar
   151   147   148   ar
   152   148   150   ar
   153   149   151   ar
   154   150   152   ar
   155   151   152   ar
   156   152   153    1
   157   154   155    1
   158   155   156    1
   159   156   157    2
   160   156   158   am
   161   158   159    1
   162   159   162    1
   163   159   160    1
   164   160   161    2
   165   162   164    1
   166   162   163    1
   167   163   165    1
   168   166   167    1
   169   167   168    1
   170   167   170    1
   171   168   177   am
   172   168   169    2
   173   170   171    1
   174   171   172    1
   175   172   173    1
   176   173   174    2
   177   174   175    1
   178   174   176    1
   179   177   178    1
   180   178   181    1
   181   178   179    1
   182   179   180    2
   183   181   182    1
   184   182   183    1
   185   183   185   ar
   186   183   184   ar
   187   186   187    1
   188   187   190    1
   189   187   188    1
   190   188   189    2
   191   190   191    1
   192   191   192    2
   193   191   193    1
   194   192   194    1
   195   193   195    1
   196   194   195    2
   197   196   197    1
   198   197   198    1
   199   197   200    1
   200   198   199    2
   201   198   205   am
   202   200   201    1
   203   201   202    1
   204   202   204   am
   205   202   203    2
   206   205   206    1
   207   206   207    1
   208   206   209    1
   209   207   208    2
   210   207   216   am
   211   209   210    1
   212   210   211    1
   213   211   212    1
   214   212   213    2
   215   213   214    1
   216   213   215    1
   217   216   217    1
   218   217   218    1
   219   217   220    1
   220   218   219    2
   221   218   224   am
   222   220   221    1
   223   221   223   ar
   224   221   222   ar
   225   224   225    1
   226   225   226    1
   227   225   228    1
   228   226   227    2
   229   226   232   am
   230   228   229    1
   231   229   231    1
   232   229   230    1
   233   232   233    1
   234   233   234    1
   235   234   235    2
   236   236   237    1
   237   237   240    1
   238   237   238    1
   239   238   239    2
   240   240   241    1
   241   241   243   ar
   242   241   242   ar
   243   242   244   ar
   244   243   245   ar
   245   244   246   ar
   246   245   246   ar
   247   247   248    1
   248   248   251    1
   249   248   249    1
   250   249   250    2
   251   251   252    1
   252   252   254   ar
   253   252   253   ar
   254   253   255   ar
   255   254   256   ar
   256   255   257   ar
   257   256   257   ar
   258   257   258    1
   259   259   260    1
   260   260   263    1
   261   260   261    1
   262   261   262    2
   263   263   264    1
   264   264   266   ar
   265   264   265   ar
