@<TRIPOS>MOLECULE
./1bya/ligand.pdb
 45 48 0 0 0
SMALL
GASTEIGER

@<TRIPOS>ATOM
      1  C1        -3.5460   29.8080   32.9720 C.3     1  GLC1        0.3023
      2  O1        -4.6840   29.2160   33.5480 O.3     1  GLC1       -0.1869
      3  C2        -3.1670   31.0720   33.5970 C.3     1  GLC1        0.2433
      4  O2        -4.3220   31.7630   33.9290 O.3     1  GLC1       -0.2148
      5  C3        -2.4440   31.8050   32.5150 C.3     1  GLC1        0.2168
      6  O3        -2.1480   33.1120   32.9000 O.3     1  GLC1       -0.2175
      7  C4        -1.2030   31.0520   32.0660 C.3     1  GLC1        0.1804
      8  O4        -0.6740   31.6450   30.8770 O.3     1  GLC1       -0.3257
      9  C5        -1.5260   29.5860   31.8290 C.3     1  GLC1        0.1804
     10  O5        -2.3450   29.0440   32.9150 O.3     1  GLC1       -0.3237
     11  C6        -0.2400   28.8180   31.7180 C.3     1  GLC1        0.2141
     12  O6        -0.3510   27.5760   31.0830 O.3     1  GLC1       -0.2176
     13  C1         0.8240   32.0130   31.1070 C.3     2  GLC2        0.2695
     14  C2         1.0010   33.5060   30.7990 C.3     2  GLC2        0.2404
     15  O2        -0.0970   34.2220   31.3770 O.3     2  GLC2       -0.2149
     16  C3         1.0290   33.7970   29.2840 C.3     2  GLC2        0.2167
     17  O3         1.4370   35.1470   29.1790 O.3     2  GLC2       -0.2175
     18  C4         1.9830   32.8170   28.5090 C.3     2  GLC2        0.1804
     19  O4         1.9140   32.8690   27.0650 O.3     2  GLC2       -0.3257
     20  C5         1.5970   31.3810   28.8840 C.3     2  GLC2        0.1803
     21  O5         1.7200   31.2050   30.3220 O.3     2  GLC2       -0.3257
     22  C6         2.5550   30.4440   28.2040 C.3     2  GLC2        0.2141
     23  O6         3.8770   30.5800   28.6210 O.3     2  GLC2       -0.2176
     24  C1         0.9150   33.3680   25.7080 C.3     3  GLC3        0.2695
     25  C2        -0.2520   32.4840   25.3630 C.3     3  GLC3        0.2404
     26  O2        -0.8790   32.1990   26.5650 O.3     3  GLC3       -0.2149
     27  C3         0.3420   31.2250   24.7390 C.3     3  GLC3        0.2167
     28  O3        -0.6290   30.2180   24.5090 O.3     3  GLC3       -0.2175
     29  C4         1.1200   31.5890   23.4610 C.3     3  GLC3        0.1804
     30  O4         1.8330   30.4680   23.0300 O.3     3  GLC3       -0.3257
     31  C5         2.1440   32.6170   23.8750 C.3     3  GLC3        0.1803
     32  O5         1.4450   33.7360   24.4400 O.3     3  GLC3       -0.3257
     33  C6         2.9600   33.0870   22.6950 C.3     3  GLC3        0.2141
     34  O6         2.2530   33.7760   21.7020 O.3     3  GLC3       -0.2176
     35  C1         1.1440   29.6280   21.9920 C.3     4  GLC4        0.2695
     36  C2         1.9650   28.3740   21.7090 C.3     4  GLC4        0.2406
     37  O2         2.1410   27.5020   22.8410 O.3     4  GLC4       -0.2149
     38  C3         3.3010   28.7850   21.1550 C.3     4  GLC4        0.2198
     39  O3         4.0440   27.6430   20.8950 O.3     4  GLC4       -0.2174
     40  C4         3.1440   29.6420   19.9090 C.3     4  GLC4        0.2144
     41  O4         4.4350   30.0480   19.4900 O.3     4  GLC4       -0.2176
     42  C5         2.3060   30.8640   20.2160 C.3     4  GLC4        0.1835
     43  O5         1.0740   30.4720   20.7870 O.3     4  GLC4       -0.3256
     44  C6         1.9210   31.5340   18.8880 C.3     4  GLC4        0.2142
     45  O6         1.1310   30.7840   17.9410 O.3     4  GLC4       -0.2176
@<TRIPOS>BOND
     1     1     2    1
     2     1     3    1
     3     1    10    1
     4     3     4    1
     5     3     5    1
     6     5     6    1
     7     5     7    1
     8     7     8    1
     9     7     9    1
    10     8    13    1
    11     9    10    1
    12     9    11    1
    13    11    12    1
    14    13    14    1
    15    13    21    1
    16    14    15    1
    17    14    16    1
    18    16    17    1
    19    16    18    1
    20    18    19    1
    21    18    20    1
    22    19    24    1
    23    20    21    1
    24    20    22    1
    25    22    23    1
    26    24    25    1
    27    24    32    1
    28    25    26    1
    29    25    27    1
    30    27    28    1
    31    27    29    1
    32    29    30    1
    33    29    31    1
    34    30    35    1
    35    31    32    1
    36    31    33    1
    37    33    34    1
    38    35    36    1
    39    35    43    1
    40    36    37    1
    41    36    38    1
    42    38    39    1
    43    38    40    1
    44    40    41    1
    45    40    42    1
    46    42    43    1
    47    42    44    1
    48    44    45    1
