@<TRIPOS>MOLECULE
./2irx/protein.pdb
 222 211 0 0 0
SMALL
GASTEIGER

@<TRIPOS>ATOM
      1 N          25.6750   28.6060    1.1800 N.3     1  LYS1       -0.1245
      2 CA         26.3870   27.9130    2.2470 C.3     1  LYS1        0.1561
      3 C          25.8280   26.4830    2.3900 C.2     1  LYS1        0.2260
      4 O          24.6650   26.2700    2.8140 O.2     1  LYS1       -0.2867
      5 CB         26.3480   28.6900    3.5570 C.3     1  LYS1        0.0271
      6 CG         27.4640   28.2950    4.5410 C.3     1  LYS1        0.0035
      7 CD         27.5710   29.2990    5.6990 C.3     1  LYS1        0.0206
      8 CE         28.6280   28.8240    6.7200 C.3     1  LYS1        0.1093
      9 NZ         28.8430   29.8520    7.8390 N.3     1  LYS1       -0.1314
     10 N          31.2580   27.9320    1.8920 N.3     1  PHE1       -0.1241
     11 CA         30.5470   29.0890    1.4080 C.3     1  PHE1        0.1605
     12 C          30.8440   29.1220   -0.0940 C.2     1  PHE1        0.2264
     13 O          31.9360   29.5530   -0.5260 O.2     1  PHE1       -0.2867
     14 CB         31.1240   30.2910    2.1500 C.3     1  PHE1        0.0534
     15 CG         30.2460   31.5060    2.1790 C.ar    1  PHE1       -0.0203
     16 CD2        28.9830   31.4760    2.7850 C.ar    1  PHE1       -0.0042
     17 CD1        30.7400   32.7190    1.6630 C.ar    1  PHE1       -0.0042
     18 CE2        28.1700   32.6360    2.8370 C.ar    1  PHE1       -0.0003
     19 CE1        29.9610   33.9030    1.7420 C.ar    1  PHE1       -0.0003
     20 CZ         28.6680   33.8570    2.3170 C.ar    1  PHE1       -0.0000
     21 N          21.7540   27.5760    3.6710 N.3     1  GLU1       -0.1245
     22 CA         21.6910   29.0400    3.7230 C.3     1  GLU1        0.1565
     23 C          21.9390   29.6500    2.3490 C.2     1  GLU1        0.2260
     24 O          22.8640   29.2360    1.6060 O.2     1  GLU1       -0.2867
     25 CB         22.7130   29.6120    4.7360 C.3     1  GLU1        0.0329
     26 CG         22.5960   28.9920    6.1430 C.3     1  GLU1        0.0437
     27 CD         23.4250   29.6890    7.1910 C.2     1  GLU1        0.0504
     28 OE1        24.2940   30.5120    6.8150 O.co2   1  GLU1       -0.5492
     29 OE2        23.1900   29.4370    8.4040 O.co2   1  GLU1       -0.5492
     30 N          22.7880   33.3030    0.8260 N.3     1  HIS1       -0.1241
     31 CA         23.3070   34.6400    1.1740 C.3     1  HIS1        0.1621
     32 C          23.3300   35.5480   -0.0750 C.2     1  HIS1        0.2264
     33 O          23.7220   35.1050   -1.1570 O.2     1  HIS1       -0.2867
     34 CB         24.6920   34.5400    1.8070 C.3     1  HIS1        0.0745
     35 CG         24.7050   33.8380    3.1380 C.ar    1  HIS1        0.0817
     36 ND1        25.0030   34.4840    4.3210 N.ar    1  HIS1       -0.2268
     37 CD2        24.4590   32.5410    3.4680 C.ar    1  HIS1        0.1154
     38 CE1        24.9440   33.6240    5.3240 C.ar    1  HIS1        0.1986
     39 NE2        24.6090   32.4350    4.8350 N.ar    1  HIS1       -0.2212
     40 N          23.3310   44.3750   10.6770 N.3     1  ASP1       -0.1227
     41 CA         23.5450   43.0830   11.2830 C.3     1  ASP1        0.1748
     42 C          23.8600   43.3510   12.7660 C.2     1  ASP1        0.2596
     43 O          24.9220   43.8740   13.1130 O.2     1  ASP1       -0.2718
     44 CB         24.6810   42.3680   10.5220 C.3     1  ASP1        0.0701
     45 CG         25.0340   40.9980   11.1050 C.2     1  ASP1        0.0523
     46 OD2        24.3120   40.4960   11.9860 O.co2   1  ASP1       -0.5491
     47 OD1        26.0470   40.3930   10.6580 O.co2   1  ASP1       -0.5491
     48 N          22.9190   43.0120   13.6390 N.am    2  LEU2       -0.1966
     49 CA         23.0920   43.2840   15.0770 C.3     2  LEU2        0.1728
     50 C          23.5220   42.0040   15.7990 C.2     2  LEU2        0.2616
     51 O          22.7440   41.0340   15.8630 O.2     2  LEU2       -0.2715
     52 CB         21.7830   43.8000   15.7070 C.3     2  LEU2        0.0311
     53 CG         21.4190   45.2950   15.5880 C.3     2  LEU2        0.0022
     54 CD1        21.4020   45.7960   14.1460 C.3     2  LEU2        0.0001
     55 CD2        20.0860   45.6010   16.2780 C.3     2  LEU2        0.0001
     56 N          24.7280   42.0450   16.3760 N.am    3  ASP3       -0.1960
     57 CA         25.3280   40.9250   17.1120 C.3     3  ASP3        0.1768
     58 C          25.4270   41.2190   18.6070 C.2     3  ASP3        0.2462
     59 O          26.0450   42.2010   18.9920 O.2     3  ASP3       -0.2730
     60 CB         26.7490   40.6760   16.6000 C.3     3  ASP3        0.0727
     61 CG         26.7630   40.1460   15.1840 C.2     3  ASP3        0.0526
     62 OD2        25.6960   39.7300   14.7290 O.co2   3  ASP3       -0.5491
     63 OD1        27.8190   40.1820   14.5290 O.co2   3  ASP3       -0.5491
     64 N          24.8720   40.3340   19.4410 N.am    4  PRO4       -0.2727
     65 CA         24.9720   40.4700   20.8980 C.3     4  PRO4        0.1402
     66 C          26.3700   40.0740   21.3940 C.2     4  PRO4        0.2269
     67 O          26.8880   39.0040   21.0380 O.2     4  PRO4       -0.2865
     68 CB         23.8820   39.5170   21.4130 C.3     4  PRO4        0.0296
     69 CG         23.7940   38.4480   20.3520 C.3     4  PRO4        0.0237
     70 CD         24.1090   39.1300   19.0410 C.3     4  PRO4        0.0939
     71 N          17.5820   36.6590   13.0910 N.3     1  SER1       -0.1217
     72 CA         18.5120   36.0390   12.1280 C.3     1  SER1        0.1889
     73 CB         18.4090   34.5190   11.9830 C.2     1  SER1        0.2288
     74 OG         18.8640   33.9610   10.9860 O.2     1  SER1       -0.2866
     75 C          19.9660   36.3700   12.4880 C.3     1  SER1        0.2089
     76 O          20.3430   35.6060   13.6170 O.3     1  SER1       -0.2183
     77 N          19.9110   32.7210   14.2340 N.3     1  SER1       -0.1202
     78 CA         21.1130   32.3120   14.9320 C.3     1  SER1        0.2020
     79 C          21.1350   33.0100   16.3000 C.2     1  SER1        0.2619
     80 O          20.4720   32.5500   17.2120 O.2     1  SER1       -0.2717
     81 CB         22.3440   32.5750   14.0640 C.3     1  SER1        0.2103
     82 OG         23.5550   32.1970   14.7140 O.3     1  SER1       -0.2182
     83 N          21.8420   34.1250   16.4420 N.am    2  LYS2       -0.1961
     84 CA         22.0070   34.7600   17.7650 C.3     2  LYS2        0.1771
     85 C          21.4040   36.1720   17.8780 C.2     2  LYS2        0.2620
     86 O          21.1420   36.6630   18.9890 O.2     2  LYS2       -0.2715
     87 CB         23.5080   34.8260   18.1120 C.3     2  LYS2        0.0568
     88 CG         24.0880   33.4720   18.5430 C.2     2  LYS2       -0.0269
     89 CD         25.6230   33.3060   18.4500 C.2     2  LYS2       -0.0102
     90 CE         26.4310   34.5870   18.2240 C.3     2  LYS2        0.1350
     91 NZ         26.8160   34.7230   16.7650 N.3     2  LYS2       -0.1262
     92 N          21.2190   36.8300   16.7330 N.am    3  GLY3       -0.1940
     93 CA         20.8840   38.2630   16.7110 C.3     3  GLY3        0.2014
     94 C          19.7040   38.6440   15.8370 C.2     3  GLY3        0.2639
     95 O          18.7580   37.8670   15.6380 O.2     3  GLY3       -0.2714
     96 N          19.7620   39.8730   15.3340 N.am    4  LEU4       -0.1963
     97 CA         18.6730   40.4670   14.5670 C.3     4  LEU4        0.1728
     98 C          19.2540   41.1110   13.3320 C.2     4  LEU4        0.2616
     99 O          20.3700   41.6340   13.3690 O.2     4  LEU4       -0.2715
    100 CB         17.9790   41.5740   15.3760 C.3     4  LEU4        0.0311
    101 CG         17.2150   41.2890   16.6510 C.3     4  LEU4        0.0022
    102 CD2        16.7200   42.6120   17.2580 C.3     4  LEU4        0.0001
    103 CD1        16.0330   40.3700   16.3420 C.3     4  LEU4        0.0001
    104 N          18.5080   41.0670   12.2410 N.am    5  HIS5       -0.1973
    105 CA         18.8660   41.8070   11.0390 C.3     5  HIS5        0.1652
    106 C          17.7620   42.8380   10.7950 C.2     5  HIS5        0.2291
    107 O          16.5770   42.5640   11.0520 O.2     5  HIS5       -0.2864
    108 CB         19.0000   40.8630    9.8320 C.3     5  HIS5        0.0731
    109 CG         20.1260   39.8740    9.9480 C.2     5  HIS5        0.0652
    110 ND1        20.2420   38.7840    9.1120 N.2     5  HIS5       -0.2310
    111 CD2        21.1830   39.8120   10.7930 C.3     5  HIS5        0.1683
    112 CE1        21.3320   38.1040    9.4240 C.2     5  HIS5        0.1939
    113 NE2        21.9120   38.6930   10.4560 N.2     5  HIS5       -0.2440
    114 N          34.0930   46.1400   15.1500 N.3     1  MET1       -0.1245
    115 CA         34.0810   44.6780   15.2020 C.3     1  MET1        0.1570
    116 C          34.8340   44.0730   16.3820 C.2     1  MET1        0.2261
    117 O          34.3970   43.0670   16.9490 O.2     1  MET1       -0.2867
    118 CB         34.6640   44.1290   13.8960 C.3     1  MET1        0.0387
    119 CG         34.1770   42.7450   13.5160 C.3     1  MET1        0.0595
    120 SD         34.3550   42.4470   11.7400 S.3     1  MET1       -0.1393
    121 CE         32.8710   43.2590   11.1120 C.3     1  MET1        0.0692
    122 N          36.3720   42.2900   19.2310 N.3     1  LYS1       -0.1245
    123 CA         35.5480   41.5140   20.1660 C.3     1  LYS1        0.1561
    124 C          35.8870   41.7220   21.6440 C.2     1  LYS1        0.2260
    125 O          35.0550   41.4590   22.5210 O.2     1  LYS1       -0.2867
    126 CB         35.5820   40.0220   19.8000 C.3     1  LYS1        0.0271
    127 CG         34.8710   39.7060   18.4830 C.3     1  LYS1        0.0035
    128 CD         34.8280   38.2200   18.1890 C.3     1  LYS1        0.0206
    129 CE         33.6650   37.5420   18.9020 C.3     1  LYS1        0.1093
    130 NZ         33.4930   36.1440   18.4210 N.3     1  LYS1       -0.1314
    131 N          33.3860   44.0110   22.9850 N.3     1  ARG1       -0.1245
    132 CA         31.9740   43.7800   22.6610 C.3     1  ARG1        0.1563
    133 C          31.0820   43.3850   23.8560 C.2     1  ARG1        0.2260
    134 O          29.8650   43.4900   23.7510 O.2     1  ARG1       -0.2867
    135 CB         31.7840   42.7940   21.5000 C.3     1  ARG1        0.0307
    136 CG         30.3780   42.9450   20.8400 C.3     1  ARG1        0.0489
    137 CD         30.1330   41.9280   19.7450 C.3     1  ARG1        0.2205
    138 NE         31.0860   42.0840   18.6520 N.pl3   1  ARG1       -0.0865
    139 CZ         31.2670   41.1890   17.6860 C.cat   1  ARG1        0.5346
    140 NH2        30.5520   40.0710   17.6710 N.pl3   1  ARG1        0.1354
    141 NH1        32.1590   41.4200   16.7280 N.pl3   1  ARG1        0.1354
    142 N          26.8880   44.9250   18.8390 N.3     1  PHE1       -0.1241
    143 CA         27.6640   45.4070   17.7070 C.3     1  PHE1        0.1605
    144 C          26.7130   45.6050   16.5220 C.2     1  PHE1        0.2264
    145 O          26.0360   44.6630   16.0880 O.2     1  PHE1       -0.2867
    146 CB         28.8000   44.4300   17.3910 C.3     1  PHE1        0.0534
    147 CG         29.4770   44.6500   16.0600 C.ar    1  PHE1       -0.0203
    148 CD2        29.8180   45.9350   15.6120 C.ar    1  PHE1       -0.0042
    149 CD1        29.8290   43.5540   15.2700 C.ar    1  PHE1       -0.0042
    150 CE2        30.4610   46.1170   14.3850 C.ar    1  PHE1       -0.0003
    151 CE1        30.4780   43.7240   14.0430 C.ar    1  PHE1       -0.0003
    152 CZ         30.7960   45.0120   13.5950 C.ar    1  PHE1       -0.0000
    153 N          26.6310   46.0380   13.0290 N.3     1  ASP1       -0.1241
    154 CA         27.4950   45.8730   11.8680 C.3     1  ASP1        0.1616
    155 C          26.8320   46.5070   10.6460 C.2     1  ASP1        0.2264
    156 O          25.8210   46.0260   10.1500 O.2     1  ASP1       -0.2867
    157 CB         27.8420   44.3970   11.6550 C.3     1  ASP1        0.0687
    158 CG         28.9880   44.1740   10.6600 C.2     1  ASP1        0.0522
    159 OD1        29.4630   45.1180   10.0030 O.co2   1  ASP1       -0.5491
    160 OD2        29.3860   43.0130   10.5300 O.co2   1  ASP1       -0.5491
    161 N          28.0060   45.3100    5.9050 N.3     1  GLN1       -0.1245
    162 CA         27.4710   44.3700    4.9170 C.3     1  GLN1        0.1566
    163 C          26.7070   45.1120    3.8390 C.2     1  GLN1        0.2260
    164 O          26.2180   44.5140    2.8900 O.2     1  GLN1       -0.2867
    165 CB         26.6370   43.2650    5.5720 C.3     1  GLN1        0.0367
    166 CG         27.4790   42.2350    6.2940 C.3     1  GLN1        0.0905
    167 CD         26.7280   41.4980    7.3920 C.2     1  GLN1        0.2608
    168 OE1        25.6210   41.0090    7.1730 O.2     1  GLN1       -0.2717
    169 NE2        27.3500   41.3730    8.5710 N.am    1  GLN1       -0.0878
    170 N          30.1100   42.4420    0.0780 N.3     1  LYS1       -0.1231
    171 CA         29.6030   41.6110    1.1760 C.3     1  LYS1        0.1693
    172 C          28.1780   41.0680    0.9440 C.2     1  LYS1        0.2593
    173 O          27.4400   41.5320    0.0590 O.2     1  LYS1       -0.2718
    174 CB         29.7150   42.3210    2.5270 C.3     1  LYS1        0.0285
    175 CG         31.1830   42.6430    2.9760 C.3     1  LYS1        0.0035
    176 CD         31.2540   42.9540    4.4940 C.3     1  LYS1        0.0206
    177 CE         32.6890   43.1560    4.9820 C.3     1  LYS1        0.1093
    178 NZ         32.7020   43.4260    6.4600 N.3     1  LYS1       -0.1314
    179 N          27.8100   40.0880    1.7550 N.am    2  THR2       -0.1939
    180 CA         26.4810   39.4590    1.6750 C.3     2  THR2        0.2028
    181 C          25.8380   39.4560    3.0680 C.2     2  THR2        0.2643
    182 O          26.4940   39.7700    4.0470 O.2     2  THR2       -0.2714
    183 CB         26.5700   37.9750    1.1500 C.3     2  THR2        0.1808
    184 OG1        27.4620   37.2140    1.9810 O.3     2  THR2       -0.2208
    185 CG2        27.0280   37.9160   -0.3340 C.3     2  THR2        0.0379
    186 N          24.5490   39.1420    3.1210 N.am    3  THR3       -0.1936
    187 CA         23.8230   38.8730    4.3560 C.3     3  THR3        0.2028
    188 C          22.8550   37.7580    3.9990 C.2     3  THR3        0.2642
    189 O          22.3050   37.7340    2.8830 O.2     3  THR3       -0.2714
    190 CB         23.0540   40.1300    4.8800 C.3     3  THR3        0.1808
    191 OG1        24.0030   41.2160    5.0730 O.3     3  THR3       -0.2208
    192 CG2        22.3530   39.8140    6.2210 C.3     3  THR3        0.0379
    193 N          22.6320   36.8470    4.9390 N.am    4  ILE4       -0.1977
    194 CA         21.6830   35.7550    4.7130 C.3     4  ILE4        0.1596
    195 C          20.3240   36.3150    4.2340 C.2     4  ILE4        0.2287
    196 O          19.8350   37.3500    4.7540 O.2     4  ILE4       -0.2864
    197 CB         21.5190   34.8520    5.9540 C.3     4  ILE4        0.0276
    198 CG1        20.9010   33.4980    5.5410 C.3     4  ILE4        0.0022
    199 CG2        20.6940   35.5740    7.0980 C.3     4  ILE4        0.0022
    200 CD1        21.0120   32.4530    6.6320 C.3     4  ILE4        0.0001
    201 N          18.7830   28.1270    8.5680 N.3     1  ARG1       -0.1245
    202 CA         20.1270   28.2580    9.1420 C.3     1  ARG1        0.1563
    203 C          20.8020   26.8880    9.2760 C.2     1  ARG1        0.2260
    204 O          20.1740   25.9020    9.6370 O.2     1  ARG1       -0.2867
    205 CB         20.0870   28.8790   10.5480 C.3     1  ARG1        0.0307
    206 CG         19.3740   30.2250   10.6430 C.3     1  ARG1        0.0489
    207 CD         19.9100   31.2730    9.6870 C.3     1  ARG1        0.2205
    208 NE         21.3710   31.3660    9.5820 N.pl3   1  ARG1       -0.0865
    209 CZ         22.1140   32.4630    9.7860 C.cat   1  ARG1        0.5346
    210 NH1        23.4270   32.3960    9.5600 N.pl3   1  ARG1        0.1354
    211 NH2        21.5820   33.6320   10.2000 N.pl3   1  ARG1        0.1354
    212 N          22.4440   25.4270   11.6870 N.3     1  ARG1       -0.1245
    213 CA         22.6790   25.4510   13.1370 C.3     1  ARG1        0.1563
    214 C          22.0420   24.1710   13.6570 C.2     1  ARG1        0.2260
    215 O          21.4410   23.4340   12.8660 O.2     1  ARG1       -0.2867
    216 CB         22.0200   26.6930   13.7930 C.3     1  ARG1        0.0307
    217 CG         22.4740   28.0630   13.2500 C.3     1  ARG1        0.0489
    218 CD         23.9350   28.3370   13.6270 C.3     1  ARG1        0.2205
    219 NE         24.3950   29.6920   13.2880 N.pl3   1  ARG1       -0.0865
    220 CZ         24.8950   30.0800   12.1130 C.cat   1  ARG1        0.5346
    221 NH1        24.9910   29.2330   11.0720 N.pl3   1  ARG1        0.1354
    222 NH2        25.2850   31.3530   11.9810 N.pl3   1  ARG1        0.1354
@<TRIPOS>UNITY_ATOM_ATTR
28 1
charge -1
46 1
charge -1
62 1
charge -1
159 1
charge -1
@<TRIPOS>BOND
     1     1     2    1
     2     2     3    1
     3     2     5    1
     4     3     4    2
     5     5     6    1
     6     6     7    1
     7     7     8    1
     8     8     9    1
     9    10    11    1
    10    11    12    1
    11    11    14    1
    12    12    13    2
    13    14    15    1
    14    15    17   ar
    15    15    16   ar
    16    16    18   ar
    17    17    19   ar
    18    18    20   ar
    19    19    20   ar
    20    21    22    1
    21    22    23    1
    22    22    25    1
    23    23    24    2
    24    25    26    1
    25    26    27    1
    26    27    28   ar
    27    27    29   ar
    28    30    31    1
    29    31    32    1
    30    31    34    1
    31    32    33    2
    32    34    35    1
    33    35    37   ar
    34    35    36   ar
    35    36    38   ar
    36    37    39   ar
    37    38    39   ar
    38    40    41    1
    39    41    44    1
    40    41    42    1
    41    42    43    2
    42    42    48   am
    43    44    45    1
    44    45    47   ar
    45    45    46   ar
    46    48    49    1
    47    49    52    1
    48    49    50    1
    49    50    51    2
    50    50    56   am
    51    52    53    1
    52    53    54    1
    53    53    55    1
    54    56    57    1
    55    57    60    1
    56    57    58    1
    57    58    59    2
    58    58    64   am
    59    60    61    1
    60    61    63   ar
    61    61    62   ar
    62    64    70    1
    63    64    65    1
    64    65    66    1
    65    65    68    1
    66    66    67    2
    67    68    69    1
    68    69    70    1
    69    71    72    1
    70    72    73    1
    71    72    75    1
    72    73    74    2
    73    75    76    1
    74    77    78    1
    75    78    81    1
    76    78    79    1
    77    79    83   am
    78    79    80    2
    79    81    82    1
    80    83    84    1
    81    84    85    1
    82    84    87    1
    83    85    92   am
    84    85    86    2
    85    87    88    1
    86    88    89    2
    87    89    90    1
    88    90    91    1
    89    92    93    1
    90    93    94    1
    91    94    96   am
    92    94    95    2
    93    96    97    1
    94    97    98    1
    95    97   100    1
    96    98   104   am
    97    98    99    2
    98   100   101    1
    99   101   103    1
   100   101   102    1
   101   104   105    1
   102   105   108    1
   103   105   106    1
   104   106   107    2
   105   108   109    1
   106   109   110    2
   107   109   111    1
   108   110   112    1
   109   111   113    1
   110   112   113    2
   111   114   115    1
   112   115   118    1
   113   115   116    1
   114   116   117    2
   115   118   119    1
   116   119   120    1
   117   120   121    1
   118   122   123    1
   119   123   126    1
   120   123   124    1
   121   124   125    2
   122   126   127    1
   123   127   128    1
   124   128   129    1
   125   129   130    1
   126   131   132    1
   127   132   135    1
   128   132   133    1
   129   133   134    2
   130   135   136    1
   131   136   137    1
   132   137   138    1
   133   138   139    2
   134   139   141    1
   135   139   140    1
   136   142   143    1
   137   143   144    1
   138   143   146    1
   139   144   145    2
   140   146   147    1
   141   147   149   ar
   142   147   148   ar
   143   148   150   ar
   144   149   151   ar
   145   150   152   ar
   146   151   152   ar
   147   153   154    1
   148   154   155    1
   149   154   157    1
   150   155   156    2
   151   157   158    1
   152   158   159   ar
   153   158   160   ar
   154   161   162    1
   155   162   163    1
   156   162   165    1
   157   163   164    2
   158   165   166    1
   159   166   167    1
   160   167   168    2
   161   167   169   am
   162   170   171    1
   163   171   172    1
   164   171   174    1
   165   172   173    2
   166   172   179   am
   167   174   175    1
   168   175   176    1
   169   176   177    1
   170   177   178    1
   171   179   180    1
   172   180   183    1
   173   180   181    1
   174   181   186   am
   175   181   182    2
   176   183   185    1
   177   183   184    1
   178   186   187    1
   179   187   188    1
   180   187   190    1
   181   188   189    2
   182   188   193   am
   183   190   191    1
   184   190   192    1
   185   193   194    1
   186   194   195    1
   187   194   197    1
   188   195   196    2
   189   197   198    1
   190   197   199    1
   191   198   200    1
   192   201   202    1
   193   202   203    1
   194   202   205    1
   195   203   204    2
   196   205   206    1
   197   206   207    1
   198   207   208    1
   199   208   209    2
   200   209   210    1
   201   209   211    1
   202   212   213    1
   203   213   214    1
   204   213   216    1
   205   214   215    2
   206   216   217    1
   207   217   218    1
   208   218   219    1
   209   219   220    2
   210   220   221    1
   211   220   222    1
