@<TRIPOS>MOLECULE
./3ido/protein.pdb
 184 183 0 0 0
SMALL
GASTEIGER

@<TRIPOS>ATOM
      1 N          58.1910   69.6840    5.5820 N.3     1  CYS1       -0.1221
      2 CA         58.8940   69.6200    6.8690 C.3     1  CYS1        0.1808
      3 C          60.0080   70.6840    6.8750 C.2     1  CYS1        0.2601
      4 O          59.9610   71.6250    6.0740 O.2     1  CYS1       -0.2717
      5 CB         59.4280   68.2110    7.1470 C.3     1  CYS1        0.0970
      6 SG         60.6540   67.5610    5.9570 S.3     1  CYS1       -0.0800
      7 N          60.9850   70.5650    7.7750 N.am    2  LEU2       -0.1965
      8 CA         62.0520   71.5710    7.8940 C.3     2  LEU2        0.1728
      9 C          63.0980   71.4260    6.7810 C.2     2  LEU2        0.2617
     10 O          63.2860   72.3350    5.9650 O.2     2  LEU2       -0.2715
     11 CB         62.7070   71.5030    9.2870 C.3     2  LEU2        0.0311
     12 CG         63.9460   72.3430    9.6610 C.3     2  LEU2        0.0022
     13 CD1        63.6760   73.8320    9.5600 C.3     2  LEU2        0.0001
     14 CD2        64.4450   71.9900   11.0780 C.3     2  LEU2        0.0001
     15 N          63.7420   70.2640    6.7310 N.am    3  GLY3       -0.1940
     16 CA         64.8200   70.0100    5.7810 C.3     3  GLY3        0.2014
     17 C          64.4720   69.2610    4.5060 C.2     3  GLY3        0.2639
     18 O          65.2860   69.2170    3.5780 O.2     3  GLY3       -0.2714
     19 N          63.2740   68.6840    4.4360 N.am    4  ASN4       -0.1958
     20 CA         62.8530   67.8910    3.2590 C.3     4  ASN4        0.1819
     21 C          63.8200   66.7280    2.9700 C.2     4  ASN4        0.2621
     22 O          64.1890   66.4590    1.8250 O.2     4  ASN4       -0.2715
     23 CB         62.6060   68.7870    2.0120 C.3     4  ASN4        0.1195
     24 CG         61.9520   68.0230    0.8350 C.2     4  ASN4        0.2630
     25 OD1        62.2710   68.2580   -0.3420 O.2     4  ASN4       -0.2716
     26 ND2        61.0410   67.1070    1.1560 N.am    4  ASN4       -0.0877
     27 N          64.2380   66.0550    4.0360 N.am    5  ILE5       -0.1963
     28 CA         65.0390   64.8310    3.9340 C.3     5  ILE5        0.1727
     29 C          64.5090   63.6660    4.7690 C.2     5  ILE5        0.2616
     30 O          64.8170   62.5280    4.4540 O.2     5  ILE5       -0.2715
     31 CB         66.5540   65.0360    4.2560 C.3     5  ILE5        0.0290
     32 CG1        66.7570   65.6060    5.6660 C.3     5  ILE5        0.0022
     33 CG2        67.2480   65.9000    3.1940 C.3     5  ILE5        0.0023
     34 CD1        68.1320   65.2980    6.2360 C.3     5  ILE5        0.0001
     35 N          63.7330   63.9140    5.8310 N.am    6  CYS6       -0.1954
     36 CA         63.1260   62.7820    6.5710 C.3     6  CYS6        0.1843
     37 C          61.6010   62.6790    6.3970 C.2     6  CYS6        0.2625
     38 O          61.1230   61.7850    5.6840 O.2     6  CYS6       -0.2714
     39 CB         63.4860   62.7740    8.0650 C.3     6  CYS6        0.0997
     40 SG         65.2670   62.8680    8.5230 S.3     6  CYS6       -0.0797
     41 N          60.8590   63.5990    7.0310 N.am    7  ARG7       -0.1963
     42 CA         59.4080   63.4670    7.2060 C.3     7  ARG7        0.1729
     43 C          58.5780   63.6910    5.9490 C.2     7  ARG7        0.2617
     44 O          57.7800   62.8280    5.5920 O.2     7  ARG7       -0.2715
     45 CB         58.8990   64.3830    8.3260 C.3     7  ARG7        0.0348
     46 CG         59.3210   63.9640    9.7180 C.3     7  ARG7        0.0492
     47 CD         59.0570   65.0910   10.7250 C.3     7  ARG7        0.2205
     48 NE         59.9060   66.2510   10.4570 N.pl3   7  ARG7       -0.0865
     49 CZ         59.8580   67.3830   11.1430 C.cat   7  ARG7        0.5346
     50 NH1        60.6650   68.3860   10.8200 N.pl3   7  ARG7        0.1354
     51 NH2        58.9950   67.5120   12.1470 N.pl3   7  ARG7        0.1354
     52 N          58.7340   64.8420    5.2990 N.am    8  SER8       -0.1936
     53 CA         57.9200   65.1400    4.1240 C.3     8  SER8        0.2040
     54 C          58.2250   64.2560    2.8920 C.2     8  SER8        0.2485
     55 O          57.3290   64.0060    2.1010 O.2     8  SER8       -0.2729
     56 CB         57.9180   66.6410    3.7770 C.3     8  SER8        0.2129
     57 OG         59.1510   67.0850    3.2430 O.3     8  SER8       -0.2179
     58 N          59.4940   63.7950    2.7220 N.am    9  PRO9       -0.2726
     59 CA         59.7310   62.7720    1.6910 C.3     9  PRO9        0.1402
     60 C          58.9880   61.4750    1.9710 C.2     9  PRO9        0.2269
     61 O          58.4760   60.8410    1.0490 O.2     9  PRO9       -0.2865
     62 CB         61.2440   62.5490    1.7670 C.3     9  PRO9        0.0296
     63 CG         61.7820   63.8680    2.2360 C.3     9  PRO9        0.0237
     64 CD         60.7740   64.3030    3.2730 C.3     9  PRO9        0.0939
     65 N          63.5010   75.1070    5.0640 N.3     1  CYS1       -0.1221
     66 CA         64.9320   75.4140    5.0690 C.3     1  CYS1        0.1808
     67 C          65.6080   74.8600    3.8040 C.2     1  CYS1        0.2602
     68 O          65.2740   73.7560    3.3450 O.2     1  CYS1       -0.2717
     69 CB         65.5720   74.7920    6.3110 C.3     1  CYS1        0.0970
     70 SG         67.2860   75.2650    6.6090 S.3     1  CYS1       -0.0800
     71 N          66.5440   75.6280    3.2380 N.am    2  SER2       -0.1938
     72 CA         67.2760   75.1890    2.0380 C.3     2  SER2        0.2055
     73 C          68.6330   74.5260    2.3270 C.2     2  SER2        0.2643
     74 O          69.3630   74.1620    1.4070 O.2     2  SER2       -0.2714
     75 CB         67.4430   76.3400    1.0400 C.3     2  SER2        0.2130
     76 OG         68.1730   77.3960    1.6190 O.3     2  SER2       -0.2179
     77 N          68.9490   74.3470    3.6040 N.am    3  TYR3       -0.1959
     78 CA         70.2470   73.8010    4.0020 C.3     3  TYR3        0.1771
     79 C          70.6010   72.5460    3.2030 C.2     3  TYR3        0.2620
     80 O          71.6640   72.4890    2.5720 O.2     3  TYR3       -0.2715
     81 CB         70.2970   73.5410    5.5170 C.3     3  TYR3        0.0574
     82 CG         71.6810   73.1740    6.0110 C.ar    3  TYR3       -0.0198
     83 CD2        72.6530   74.1650    6.2470 C.ar    3  TYR3       -0.0009
     84 CD1        72.0310   71.8450    6.2200 C.ar    3  TYR3       -0.0009
     85 CE2        73.9350   73.8260    6.6800 C.ar    3  TYR3        0.0417
     86 CE1        73.3050   71.5010    6.6540 C.ar    3  TYR3        0.0417
     87 CZ         74.2490   72.4920    6.8830 C.ar    3  TYR3        0.1957
     88 OH         75.5010   72.1320    7.3000 O.3     3  TYR3       -0.2866
     89 N          69.6880   71.5730    3.1990 N.am    4  HIS4       -0.1959
     90 CA         69.8930   70.2660    2.5650 C.3     4  HIS4        0.1784
     91 C          69.5400   70.1680    1.0820 C.2     4  HIS4        0.2620
     92 O          69.5990   69.0730    0.5140 O.2     4  HIS4       -0.2715
     93 CB         69.0920   69.1960    3.3040 C.3     4  HIS4        0.0745
     94 CG         69.5100   69.0120    4.7230 C.2     4  HIS4        0.0653
     95 ND1        70.5840   68.2290    5.0840 N.2     4  HIS4       -0.2310
     96 CD2        69.0180   69.5330    5.8690 C.3     4  HIS4        0.1683
     97 CE1        70.7240   68.2580    6.3970 C.2     4  HIS4        0.1939
     98 NE2        69.7890   69.0470    6.8970 N.2     4  HIS4       -0.2440
     99 N          69.1610   71.2880    0.4620 N.am    5  GLU5       -0.1977
    100 CA         68.8080   71.3020   -0.9550 C.3     5  GLU5        0.1600
    101 C          69.7710   70.4350   -1.7860 C.2     5  GLU5        0.2287
    102 O          70.9870   70.4810   -1.5840 O.2     5  GLU5       -0.2864
    103 CB         68.7600   72.7450   -1.4680 C.3     5  GLU5        0.0356
    104 CG         68.2310   72.8940   -2.8820 C.3     5  GLU5        0.0439
    105 CD         68.1260   74.3420   -3.3550 C.2     5  GLU5        0.0504
    106 OE2        68.6220   75.2590   -2.6610 O.co2   5  GLU5       -0.5492
    107 OE1        67.5240   74.5650   -4.4320 O.co2   5  GLU5       -0.5492
    108 N          67.1370   61.0370    3.7400 N.3     1  ASP1       -0.1241
    109 CA         67.9830   60.4470    4.7750 C.3     1  ASP1        0.1616
    110 C          68.0510   58.9160    4.6520 C.2     1  ASP1        0.2264
    111 O          67.0230   58.2280    4.5970 O.2     1  ASP1       -0.2867
    112 CB         67.4800   60.8710    6.1550 C.3     1  ASP1        0.0687
    113 CG         68.3400   60.3360    7.2820 C.2     1  ASP1        0.0522
    114 OD2        69.1260   61.1170    7.8510 O.co2   1  ASP1       -0.5491
    115 OD1        68.2300   59.1410    7.6050 O.co2   1  ASP1       -0.5491
    116 N          65.9140   66.7680   -1.9210 N.3     1  SER1       -0.1217
    117 CA         65.5360   67.8920   -1.0770 C.3     1  SER1        0.1889
    118 CB         65.4600   69.1950   -1.8430 C.2     1  SER1        0.2288
    119 OG         66.3300   69.4950   -2.6760 O.2     1  SER1       -0.2866
    120 C          66.4640   68.0640    0.1100 C.3     1  SER1        0.2089
    121 O          66.0250   69.1880    0.8520 O.3     1  SER1       -0.2183
    122 N          55.0240   69.5170   11.2760 N.3     1  ASP1       -0.1241
    123 CA         54.8640   69.9350   12.6900 C.3     1  ASP1        0.1616
    124 C          54.4260   71.3900   12.8330 C.2     1  ASP1        0.2264
    125 O          54.2610   72.0980   11.8280 O.2     1  ASP1       -0.2867
    126 CB         56.1460   69.6790   13.4990 C.3     1  ASP1        0.0687
    127 CG         57.2930   70.5990   13.0900 C.2     1  ASP1        0.0522
    128 OD1        57.0260   71.7290   12.6450 O.co2   1  ASP1       -0.5491
    129 OD2        58.4610   70.1800   13.2010 O.co2   1  ASP1       -0.5491
    130 N          56.0260   74.0800   13.9300 N.3     1  ASP1       -0.1227
    131 CA         57.0050   75.0300   13.4040 C.3     1  ASP1        0.1748
    132 C          56.8690   75.1900   11.8820 C.2     1  ASP1        0.2595
    133 O          56.9310   76.3170   11.3700 O.2     1  ASP1       -0.2718
    134 CB         58.4440   74.6220   13.7940 C.3     1  ASP1        0.0701
    135 CG         58.6550   74.5620   15.3220 C.2     1  ASP1        0.0523
    136 OD2        57.8980   75.2140   16.0740 O.co2   1  ASP1       -0.5491
    137 OD1        59.5830   73.8600   15.7740 O.co2   1  ASP1       -0.5491
    138 N          56.6730   74.0740   11.1640 N.am    2  ASN2       -0.1974
    139 CA         56.5070   74.1420    9.7060 C.3     2  ASN2        0.1688
    140 C          55.2280   74.8820    9.3820 C.2     2  ASN2        0.2292
    141 O          55.1700   75.6670    8.4350 O.2     2  ASN2       -0.2864
    142 CB         56.4470   72.7620    9.0350 C.3     2  ASN2        0.1181
    143 CG         57.5010   71.8010    9.5280 C.2     2  ASN2        0.2629
    144 OD1        57.2260   70.6230    9.6660 O.2     2  ASN2       -0.2716
    145 ND2        58.7070   72.2860    9.7810 N.am    2  ASN2       -0.0877
    146 N          60.2550   64.9500   14.5690 N.3     1  ASP1       -0.1227
    147 CA         61.5300   64.9230   13.8610 C.3     1  ASP1        0.1733
    148 C          62.3300   63.6940   14.3130 C.2     1  ASP1        0.2438
    149 O          62.6270   63.5710   15.4980 O.2     1  ASP1       -0.2733
    150 CB         62.2890   66.2110   14.1750 C.3     1  ASP1        0.0700
    151 CG         63.5570   66.3750   13.3570 C.2     1  ASP1        0.0523
    152 OD1        64.0180   65.4320   12.6830 O.co2   1  ASP1       -0.5491
    153 OD2        64.1090   67.4840   13.4110 O.co2   1  ASP1       -0.5491
    154 N          62.6480   62.7650   13.3730 N.am    2  PRO2       -0.2718
    155 CA         63.3440   61.5180   13.7350 C.3     2  PRO2        0.1535
    156 C          64.8740   61.5920   13.6350 C.2     2  PRO2        0.2599
    157 O          65.5650   60.6490   14.0620 O.2     2  PRO2       -0.2715
    158 CB         62.8470   60.5390   12.6660 C.3     2  PRO2        0.0310
    159 CG         62.7160   61.3960   11.4410 C.3     2  PRO2        0.0237
    160 CD         62.2640   62.7620   11.9370 C.3     2  PRO2        0.0939
    161 N          65.3840   62.6760   13.0640 N.am    3  TYR3       -0.1960
    162 CA         66.7930   62.7680   12.6690 C.3     3  TYR3        0.1771
    163 C          67.8070   62.3790   13.7560 C.2     3  TYR3        0.2619
    164 O          68.7650   61.6450   13.4740 O.2     3  TYR3       -0.2715
    165 CB         67.1310   64.1650   12.1330 C.3     3  TYR3        0.0574
    166 CG         68.4830   64.2060   11.4760 C.ar    3  TYR3       -0.0198
    167 CD1        68.6630   63.6970   10.1910 C.ar    3  TYR3       -0.0009
    168 CD2        69.5950   64.7300   12.1440 C.ar    3  TYR3       -0.0009
    169 CE1        69.9140   63.7110    9.5790 C.ar    3  TYR3        0.0417
    170 CE2        70.8560   64.7530   11.5380 C.ar    3  TYR3        0.0417
    171 CZ         71.0020   64.2420   10.2580 C.ar    3  TYR3        0.1957
    172 OH         72.2290   64.2490    9.6450 O.3     3  TYR3       -0.2866
    173 N          67.5820   62.8610   14.9740 N.am    4  TYR4       -0.1974
    174 CA         68.5420   62.7140   16.0590 C.3     4  TYR4        0.1639
    175 C          68.2750   61.5130   16.9620 C.2     4  TYR4        0.2290
    176 O          68.8700   61.3950   18.0360 O.2     4  TYR4       -0.2864
    177 CB         68.5800   63.9850   16.8930 C.3     4  TYR4        0.0560
    178 CG         69.0710   65.2050   16.1450 C.ar    4  TYR4       -0.0198
    179 CD2        70.4360   65.4100   15.9250 C.ar    4  TYR4       -0.0009
    180 CD1        68.1710   66.1690   15.6660 C.ar    4  TYR4       -0.0009
    181 CE2        70.8940   66.5340   15.2460 C.ar    4  TYR4        0.0417
    182 CE1        68.6180   67.2920   14.9890 C.ar    4  TYR4        0.0417
    183 CZ         69.9830   67.4720   14.7860 C.ar    4  TYR4        0.1957
    184 OH         70.4360   68.5830   14.1240 O.3     4  TYR4       -0.2866
@<TRIPOS>UNITY_ATOM_ATTR
106 1
charge -1
114 1
charge -1
128 1
charge -1
136 1
charge -1
152 1
charge -1
@<TRIPOS>BOND
     1     1     2    1
     2     2     3    1
     3     2     5    1
     4     3     4    2
     5     3     7   am
     6     5     6    1
     7     7     8    1
     8     8     9    1
     9     8    11    1
    10     9    10    2
    11     9    15   am
    12    11    12    1
    13    12    13    1
    14    12    14    1
    15    15    16    1
    16    16    17    1
    17    17    18    2
    18    17    19   am
    19    19    20    1
    20    20    23    1
    21    20    21    1
    22    21    22    2
    23    21    27   am
    24    23    24    1
    25    24    25    2
    26    24    26   am
    27    27    28    1
    28    28    31    1
    29    28    29    1
    30    29    30    2
    31    29    35   am
    32    31    33    1
    33    31    32    1
    34    32    34    1
    35    35    36    1
    36    36    37    1
    37    36    39    1
    38    37    38    2
    39    37    41   am
    40    39    40    1
    41    41    42    1
    42    42    43    1
    43    42    45    1
    44    43    52   am
    45    43    44    2
    46    45    46    1
    47    46    47    1
    48    47    48    1
    49    48    49    2
    50    49    50    1
    51    49    51    1
    52    52    53    1
    53    53    54    1
    54    53    56    1
    55    54    55    2
    56    54    58   am
    57    56    57    1
    58    58    59    1
    59    58    64    1
    60    59    62    1
    61    59    60    1
    62    60    61    2
    63    62    63    1
    64    63    64    1
    65    65    66    1
    66    66    67    1
    67    66    69    1
    68    67    71   am
    69    67    68    2
    70    69    70    1
    71    71    72    1
    72    72    75    1
    73    72    73    1
    74    73    74    2
    75    73    77   am
    76    75    76    1
    77    77    78    1
    78    78    79    1
    79    78    81    1
    80    79    80    2
    81    79    89   am
    82    81    82    1
    83    82    84   ar
    84    82    83   ar
    85    83    85   ar
    86    84    86   ar
    87    85    87   ar
    88    86    87   ar
    89    87    88    1
    90    89    90    1
    91    90    91    1
    92    90    93    1
    93    91    99   am
    94    91    92    2
    95    93    94    1
    96    94    95    2
    97    94    96    1
    98    95    97    1
    99    96    98    1
   100    97    98    2
   101    99   100    1
   102   100   101    1
   103   100   103    1
   104   101   102    2
   105   103   104    1
   106   104   105    1
   107   105   107   ar
   108   105   106   ar
   109   108   109    1
   110   109   110    1
   111   109   112    1
   112   110   111    2
   113   112   113    1
   114   113   115   ar
   115   113   114   ar
   116   116   117    1
   117   117   118    1
   118   117   120    1
   119   118   119    2
   120   120   121    1
   121   122   123    1
   122   123   124    1
   123   123   126    1
   124   124   125    2
   125   126   127    1
   126   127   128   ar
   127   127   129   ar
   128   130   131    1
   129   131   132    1
   130   131   134    1
   131   132   138   am
   132   132   133    2
   133   134   135    1
   134   135   137   ar
   135   135   136   ar
   136   138   139    1
   137   139   142    1
   138   139   140    1
   139   140   141    2
   140   142   143    1
   141   143   144    2
   142   143   145   am
   143   146   147    1
   144   147   150    1
   145   147   148    1
   146   148   154   am
   147   148   149    2
   148   150   151    1
   149   151   152   ar
   150   151   153   ar
   151   154   160    1
   152   154   155    1
   153   155   158    1
   154   155   156    1
   155   156   161   am
   156   156   157    2
   157   158   159    1
   158   159   160    1
   159   161   162    1
   160   162   165    1
   161   162   163    1
   162   163   164    2
   163   163   173   am
   164   165   166    1
   165   166   167   ar
   166   166   168   ar
   167   167   169   ar
   168   168   170   ar
   169   169   171   ar
   170   170   171   ar
   171   171   172    1
   172   173   174    1
   173   174   177    1
   174   174   175    1
   175   175   176    2
   176   177   178    1
   177   178   180   ar
   178   178   179   ar
   179   179   181   ar
   180   180   182   ar
   181   181   183   ar
   182   182   183   ar
   183   183   184    1
