@<TRIPOS>MOLECULE
./2dya/protein.pdb
 269 262 0 0 0
SMALL
GASTEIGER

@<TRIPOS>ATOM
      1 N          37.5440   39.6570   20.5960 N.3     1  LYS1       -0.1245
      2 CA         38.7270   40.4930   20.7450 C.3     1  LYS1        0.1561
      3 C          39.7250   40.4070   19.5940 C.2     1  LYS1        0.2260
      4 O          39.7020   39.4640   18.8030 O.2     1  LYS1       -0.2867
      5 CB         39.4100   40.1540   22.0710 C.3     1  LYS1        0.0271
      6 CG         38.4920   40.2920   23.2830 C.3     1  LYS1        0.0035
      7 CD         39.2540   40.0380   24.5750 C.3     1  LYS1        0.0206
      8 CE         38.3610   40.2230   25.7910 C.3     1  LYS1        0.1093
      9 NZ         39.1220   40.0350   27.0610 N.3     1  LYS1       -0.1314
     10 N          33.8640   50.7360   28.5610 N.3     1  HIS1       -0.1227
     11 CA         33.4340   49.3440   28.6470 C.3     1  HIS1        0.1749
     12 C          34.0730   48.6760   29.8650 C.2     1  HIS1        0.2596
     13 O          33.4050   47.9670   30.6240 O.2     1  HIS1       -0.2718
     14 CB         33.8460   48.5880   27.3830 C.3     1  HIS1        0.0718
     15 CG         33.5400   47.1230   27.4260 C.2     1  HIS1        0.0650
     16 ND1        32.2530   46.6290   27.4270 N.2     1  HIS1       -0.2310
     17 CD2        34.3570   46.0440   27.4760 C.3     1  HIS1        0.1683
     18 CE1        32.2900   45.3100   27.4760 C.2     1  HIS1        0.1939
     19 NE2        33.5560   44.9290   27.5070 N.2     1  HIS1       -0.2440
     20 N          35.3710   48.9150   30.0410 N.am    2  TYR2       -0.1962
     21 CA         36.1320   48.3450   31.1520 C.3     2  TYR2        0.1771
     22 C          36.2700   49.3050   32.3330 C.2     2  TYR2        0.2619
     23 O          37.2700   49.2870   33.0540 O.2     2  TYR2       -0.2715
     24 CB         37.5260   47.9240   30.6690 C.3     2  TYR2        0.0574
     25 CG         37.5380   46.6510   29.8520 C.ar    2  TYR2       -0.0198
     26 CD2        36.9300   45.4900   30.3290 C.ar    2  TYR2       -0.0009
     27 CD1        38.1830   46.5960   28.6150 C.ar    2  TYR2       -0.0009
     28 CE2        36.9640   44.3020   29.5980 C.ar    2  TYR2        0.0417
     29 CE1        38.2250   45.4120   27.8740 C.ar    2  TYR2        0.0417
     30 CZ         37.6140   44.2680   28.3730 C.ar    2  TYR2        0.1957
     31 OH         37.6680   43.0840   27.6610 O.3     2  TYR2       -0.2866
     32 N          35.2560   50.1370   32.5280 N.am    3  GLU3       -0.1963
     33 CA         35.2510   51.1140   33.6110 C.3     3  GLU3        0.1731
     34 C          35.5690   50.5450   35.0010 C.2     3  GLU3        0.2616
     35 O          36.2320   51.1990   35.8050 O.2     3  GLU3       -0.2715
     36 CB         33.8950   51.8250   33.6270 C.3     3  GLU3        0.0370
     37 CG         33.5390   52.4980   34.9320 C.3     3  GLU3        0.0440
     38 CD         32.3600   53.4400   34.7840 C.2     3  GLU3        0.0504
     39 OE1        31.3380   53.0330   34.1830 O.co2   3  GLU3       -0.5492
     40 OE2        32.4610   54.5880   35.2740 O.co2   3  GLU3       -0.5492
     41 N          35.1060   49.3290   35.2780 N.am    4  GLU4       -0.1963
     42 CA         35.3330   48.6980   36.5790 C.3     4  GLU4        0.1731
     43 C          36.8000   48.3530   36.8420 C.2     4  GLU4        0.2616
     44 O          37.1630   48.0190   37.9680 O.2     4  GLU4       -0.2715
     45 CB         34.4980   47.4180   36.7020 C.3     4  GLU4        0.0370
     46 CG         35.0650   46.2450   35.9100 C.3     4  GLU4        0.0440
     47 CD         34.2650   44.9660   36.0740 C.2     4  GLU4        0.0504
     48 OE2        34.0520   44.5320   37.2280 O.co2   4  GLU4       -0.5492
     49 OE1        33.8580   44.3900   35.0420 O.co2   4  GLU4       -0.5492
     50 N          37.6390   48.4300   35.8100 N.am    5  HIS5       -0.1973
     51 CA         39.0560   48.1000   35.9580 C.3     5  HIS5        0.1656
     52 C          39.9800   49.3040   35.8230 C.2     5  HIS5        0.2291
     53 O          41.1980   49.1500   35.7550 O.2     5  HIS5       -0.2864
     54 CB         39.4680   47.0480   34.9210 C.3     5  HIS5        0.0771
     55 CG         38.6470   45.7970   34.9660 C.ar    5  HIS5        0.0820
     56 ND1        38.4780   45.0570   36.1160 N.ar    5  HIS5       -0.2267
     57 CD2        37.9620   45.1450   33.9960 C.ar    5  HIS5        0.1154
     58 CE1        37.7250   44.0040   35.8540 C.ar    5  HIS5        0.1986
     59 NE2        37.3980   44.0340   34.5740 N.ar    5  HIS5       -0.2212
     60 N          42.9260   49.4390   38.2240 N.3     1  LYS1       -0.1245
     61 CA         43.7390   48.2370   38.3450 C.3     1  LYS1        0.1561
     62 C          45.0410   48.3520   37.5500 C.2     1  LYS1        0.2260
     63 O          45.0980   49.0240   36.5190 O.2     1  LYS1       -0.2867
     64 CB         42.9230   47.0190   37.9070 C.3     1  LYS1        0.0271
     65 CG         41.6970   46.8060   38.7840 C.3     1  LYS1        0.0035
     66 CD         40.8560   45.6220   38.3480 C.3     1  LYS1        0.0206
     67 CE         39.6010   45.5200   39.2000 C.3     1  LYS1        0.1093
     68 NZ         38.7680   44.3330   38.8670 N.3     1  LYS1       -0.1314
     69 N          46.7120   46.3490   35.5130 N.3     1  PHE1       -0.1241
     70 CA         46.7160   45.8810   34.1250 C.3     1  PHE1        0.1605
     71 C          45.7830   46.6430   33.1850 C.2     1  PHE1        0.2264
     72 O          45.6430   46.2800   32.0160 O.2     1  PHE1       -0.2867
     73 CB         46.3550   44.3970   34.0930 C.3     1  PHE1        0.0534
     74 CG         44.9640   44.1020   34.5790 C.ar    1  PHE1       -0.0203
     75 CD1        43.8660   44.2700   33.7370 C.ar    1  PHE1       -0.0042
     76 CD2        44.7480   43.6620   35.8830 C.ar    1  PHE1       -0.0042
     77 CE1        42.5720   44.0010   34.1870 C.ar    1  PHE1       -0.0003
     78 CE2        43.4630   43.3910   36.3410 C.ar    1  PHE1       -0.0003
     79 CZ         42.3700   43.5610   35.4920 C.ar    1  PHE1       -0.0000
     80 N          47.2410   47.9660   29.7070 N.3     1  ALA1       -0.1231
     81 CA         47.5390   46.8650   28.7900 C.3     1  ALA1        0.1694
     82 C          46.2500   46.3370   28.1710 C.2     1  ALA1        0.2592
     83 O          46.2140   45.9630   26.9990 O.2     1  ALA1       -0.2718
     84 CB         48.2600   45.7380   29.5310 C.3     1  ALA1        0.0304
     85 N          45.1950   46.3090   28.9760 N.am    2  LEU2       -0.1966
     86 CA         43.8960   45.8350   28.5300 C.3     2  LEU2        0.1728
     87 C          43.3380   46.7590   27.4500 C.2     2  LEU2        0.2616
     88 O          42.8010   46.2980   26.4420 O.2     2  LEU2       -0.2715
     89 CB         42.9360   45.7640   29.7210 C.3     2  LEU2        0.0311
     90 CG         41.5050   45.2960   29.4470 C.3     2  LEU2        0.0022
     91 CD1        41.5180   43.9560   28.7190 C.3     2  LEU2        0.0001
     92 CD2        40.7510   45.1900   30.7630 C.3     2  LEU2        0.0001
     93 N          43.4740   48.0640   27.6640 N.am    3  ILE3       -0.1977
     94 CA         42.9860   49.0500   26.7040 C.3     3  ILE3        0.1596
     95 C          43.7440   48.9530   25.3740 C.2     3  ILE3        0.2287
     96 O          43.1370   49.0170   24.3070 O.2     3  ILE3       -0.2864
     97 CB         43.1190   50.4890   27.2720 C.3     3  ILE3        0.0276
     98 CG1        42.3160   50.6090   28.5720 C.3     3  ILE3        0.0022
     99 CG2        42.6380   51.5110   26.2460 C.3     3  ILE3        0.0022
    100 CD1        40.8340   50.2450   28.4440 C.3     3  ILE3        0.0001
    101 N          45.2690   46.3480   24.2400 N.3     1  TYR1       -0.1227
    102 CA         44.8780   45.0520   23.7050 C.3     1  TYR1        0.1736
    103 C          43.5280   45.0970   22.9810 C.2     1  TYR1        0.2595
    104 O          43.4510   44.7880   21.7950 O.2     1  TYR1       -0.2718
    105 CB         44.8640   44.0270   24.8530 C.3     1  TYR1        0.0548
    106 CG         44.1340   42.7290   24.5760 C.ar    1  TYR1       -0.0200
    107 CD1        44.3740   41.9920   23.4120 C.ar    1  TYR1       -0.0009
    108 CD2        43.1990   42.2340   25.4850 C.ar    1  TYR1       -0.0009
    109 CE1        43.6920   40.7970   23.1630 C.ar    1  TYR1        0.0417
    110 CE2        42.5190   41.0400   25.2470 C.ar    1  TYR1        0.0417
    111 CZ         42.7670   40.3310   24.0840 C.ar    1  TYR1        0.1957
    112 OH         42.0670   39.1710   23.8410 O.3     1  TYR1       -0.2866
    113 N          42.4760   45.5090   23.6820 N.am    2  ILE2       -0.1980
    114 CA         41.1350   45.5570   23.0940 C.3     2  ILE2        0.1595
    115 C          40.9720   46.5600   21.9460 C.2     2  ILE2        0.2287
    116 O          39.9920   46.5010   21.2020 O.2     2  ILE2       -0.2864
    117 CB         40.0570   45.8550   24.1850 C.3     2  ILE2        0.0276
    118 CG1        38.6770   45.3930   23.7040 C.3     2  ILE2        0.0022
    119 CG2        40.0270   47.3490   24.5170 C.3     2  ILE2        0.0022
    120 CD1        38.5360   43.8880   23.6290 C.3     2  ILE2        0.0001
    121 N          28.9030   32.8760   29.5810 N.3     1  ARG1       -0.1245
    122 CA         30.0590   32.9820   30.4690 C.3     1  ARG1        0.1563
    123 C          30.6890   31.6000   30.6370 C.2     1  ARG1        0.2260
    124 O          31.9140   31.4600   30.6320 O.2     1  ARG1       -0.2867
    125 CB         29.6440   33.5390   31.8340 C.3     1  ARG1        0.0307
    126 CG         29.3150   35.0210   31.8260 C.3     1  ARG1        0.0489
    127 CD         30.5710   35.8930   31.7650 C.3     1  ARG1        0.2205
    128 NE         31.2910   35.9100   33.0370 N.pl3   1  ARG1       -0.0865
    129 CZ         32.3490   36.6780   33.2910 C.cat   1  ARG1        0.5346
    130 NH1        32.8150   37.4980   32.3590 N.pl3   1  ARG1        0.1354
    131 NH2        32.9440   36.6210   34.4780 N.pl3   1  ARG1        0.1354
    132 N          32.5670   30.6610   27.5600 N.3     1  ALA1       -0.1231
    133 CA         33.8210   31.4030   27.4450 C.3     1  ALA1        0.1694
    134 C          34.9660   30.7050   28.1780 C.2     1  ALA1        0.2593
    135 O          36.0570   30.5480   27.6320 O.2     1  ALA1       -0.2718
    136 CB         33.6430   32.8280   27.9890 C.3     1  ALA1        0.0304
    137 N          34.7180   30.2870   29.4140 N.am    2  GLY2       -0.1942
    138 CA         35.7590   29.6320   30.1860 C.3     2  GLY2        0.2014
    139 C          36.5010   30.6120   31.0820 C.2     2  GLY2        0.2639
    140 O          36.2360   31.8190   31.0540 O.2     2  GLY2       -0.2714
    141 N          37.4390   30.0950   31.8730 N.am    3  ALA3       -0.1963
    142 CA         38.2240   30.9060   32.8010 C.3     3  ALA3        0.1728
    143 C          38.9660   32.0710   32.1390 C.2     3  ALA3        0.2617
    144 O          39.5230   31.9310   31.0490 O.2     3  ALA3       -0.2715
    145 CB         39.2150   30.0140   33.5510 C.3     3  ALA3        0.0334
    146 N          38.9720   33.2130   32.8220 N.am    4  THR4       -0.1937
    147 CA         39.6240   34.4400   32.3440 C.3     4  THR4        0.2028
    148 C          40.9990   34.2000   31.7130 C.2     4  THR4        0.2642
    149 O          41.2720   34.6680   30.6000 O.2     4  THR4       -0.2714
    150 CB         39.7840   35.4550   33.4960 C.3     4  THR4        0.1808
    151 OG1        38.5100   35.6670   34.1170 O.3     4  THR4       -0.2208
    152 CG2        40.3270   36.7860   32.9710 C.3     4  THR4        0.0379
    153 N          41.8740   33.5030   32.4330 N.am    5  ASP5       -0.1973
    154 CA         43.1900   33.1870   31.8950 C.3     5  ASP5        0.1651
    155 C          42.9530   31.8980   31.1200 C.2     5  ASP5        0.2291
    156 O          42.6280   30.8660   31.7100 O.2     5  ASP5       -0.2864
    157 CB         44.2080   32.9380   33.0070 C.3     5  ASP5        0.0714
    158 CG         45.6160   32.7150   32.4660 C.2     5  ASP5        0.0525
    159 OD1        45.7590   32.1280   31.3660 O.co2   5  ASP5       -0.5491
    160 OD2        46.5830   33.1170   33.1460 O.co2   5  ASP5       -0.5491
    161 N          37.8410   29.8300   25.3820 N.3     1  ARG1       -0.1245
    162 CA         39.1840   30.1830   25.8340 C.3     1  ARG1        0.1563
    163 C          40.0160   28.9140   26.0220 C.2     1  ARG1        0.2260
    164 O          41.2050   28.8890   25.7160 O.2     1  ARG1       -0.2867
    165 CB         39.1040   30.9730   27.1450 C.3     1  ARG1        0.0307
    166 CG         38.5050   32.3610   26.9690 C.3     1  ARG1        0.0489
    167 CD         38.1550   33.0170   28.2910 C.3     1  ARG1        0.2205
    168 NE         37.7950   34.4190   28.0940 N.pl3   1  ARG1       -0.0865
    169 CZ         37.2180   35.1850   29.0130 C.cat   1  ARG1        0.5346
    170 NH2        36.9220   34.6880   30.2060 N.pl3   1  ARG1        0.1354
    171 NH1        36.9580   36.4570   28.7410 N.pl3   1  ARG1        0.1354
    172 N          51.0220   41.9410   27.3930 N.3     1  ASP1       -0.1227
    173 CA         51.0100   42.5930   28.7030 C.3     1  ASP1        0.1748
    174 C          49.5950   42.4370   29.2570 C.2     1  ASP1        0.2596
    175 O          49.3520   42.6140   30.4480 O.2     1  ASP1       -0.2718
    176 CB         51.3810   44.0810   28.6030 C.3     1  ASP1        0.0701
    177 CG         52.8430   44.2960   28.2300 C.2     1  ASP1        0.0523
    178 OD2        53.7110   43.5840   28.7870 O.co2   1  ASP1       -0.5491
    179 OD1        53.1230   45.1820   27.3900 O.co2   1  ASP1       -0.5491
    180 N          48.6650   42.0990   28.3720 N.am    2  ALA2       -0.1966
    181 CA         47.2770   41.8710   28.7540 C.3     2  ALA2        0.1728
    182 C          47.0300   40.3720   28.6160 C.2     2  ALA2        0.2616
    183 O          47.6950   39.7020   27.8270 O.2     2  ALA2       -0.2715
    184 CB         46.3330   42.6480   27.8360 C.3     2  ALA2        0.0334
    185 N          46.0980   39.8410   29.3960 N.am    3  ILE3       -0.1963
    186 CA         45.7820   38.4180   29.3170 C.3     3  ILE3        0.1727
    187 C          44.8440   38.2300   28.1230 C.2     3  ILE3        0.2616
    188 O          43.6220   38.3140   28.2550 O.2     3  ILE3       -0.2715
    189 CB         45.0970   37.9120   30.6200 C.3     3  ILE3        0.0290
    190 CG1        46.0550   38.0690   31.8080 C.3     3  ILE3        0.0022
    191 CG2        44.6840   36.4470   30.4740 C.3     3  ILE3        0.0023
    192 CD1        47.3380   37.2850   31.6800 C.3     3  ILE3        0.0001
    193 N          45.4330   37.9990   26.9530 N.am    4  CYS4       -0.1954
    194 CA         44.6680   37.8080   25.7230 C.3     4  CYS4        0.1843
    195 C          43.8150   36.5620   25.8750 C.2     4  CYS4        0.2625
    196 O          44.3500   35.4590   26.0070 O.2     4  CYS4       -0.2714
    197 CB         45.6200   37.6400   24.5380 C.3     4  CYS4        0.0997
    198 SG         46.7970   39.0060   24.3300 S.3     4  CYS4       -0.0797
    199 N          42.4930   36.7240   25.8630 N.am    5  ASN5       -0.1972
    200 CA         41.6220   35.5650   26.0240 C.3     5  ASN5        0.1688
    201 C          40.4780   35.3790   25.0220 C.2     5  ASN5        0.2292
    202 O          39.3620   35.0150   25.4000 O.2     5  ASN5       -0.2864
    203 CB         41.0750   35.4960   27.4600 C.3     5  ASN5        0.1181
    204 CG         40.3830   36.7720   27.8950 C.2     5  ASN5        0.2629
    205 OD1        40.0140   37.6110   27.0710 O.2     5  ASN5       -0.2716
    206 ND2        40.1890   36.9170   29.2010 N.am    5  ASN5       -0.0877
    207 N          37.7600   36.2140   23.6710 N.3     1  ILE1       -0.1231
    208 CA         36.4950   36.9390   23.6790 C.3     1  ILE1        0.1692
    209 C          36.1410   37.5290   25.0290 C.2     1  ILE1        0.2592
    210 O          36.7750   37.2350   26.0450 O.2     1  ILE1       -0.2718
    211 CB         35.3010   36.0240   23.2610 C.3     1  ILE1        0.0266
    212 CG1        34.9460   35.0550   24.3960 C.3     1  ILE1        0.0019
    213 CG2        35.6370   35.2500   21.9910 C.3     1  ILE1        0.0020
    214 CD1        36.0760   34.1520   24.8490 C.3     1  ILE1        0.0001
    215 N          35.1100   38.3700   25.0140 N.am    2  HIS2       -0.1962
    216 CA         34.5760   39.0030   26.2140 C.3     2  HIS2        0.1787
    217 C          33.1000   38.6210   26.3020 C.2     2  HIS2        0.2620
    218 O          32.4260   38.5070   25.2840 O.2     2  HIS2       -0.2715
    219 CB         34.6680   40.5300   26.1320 C.3     2  HIS2        0.0785
    220 CG         33.7760   41.2300   27.1130 C.ar    2  HIS2        0.0821
    221 ND1        34.1690   41.5250   28.4000 N.ar    2  HIS2       -0.2267
    222 CD2        32.4750   41.6030   27.0220 C.ar    2  HIS2        0.1154
    223 CE1        33.1490   42.0440   29.0610 C.ar    2  HIS2        0.1986
    224 NE2        32.1090   42.1000   28.2480 N.ar    2  HIS2       -0.2212
    225 N          32.6060   38.4300   27.5200 N.am    3  ALA3       -0.1963
    226 CA         31.2050   38.0960   27.7550 C.3     3  ALA3        0.1728
    227 C          30.7450   38.8640   28.9920 C.2     3  ALA3        0.2617
    228 O          31.4730   38.9240   29.9810 O.2     3  ALA3       -0.2715
    229 CB         31.0480   36.5920   27.9820 C.3     3  ALA3        0.0334
    230 N          29.5560   39.4650   28.9350 N.am    4  SER4       -0.1936
    231 CA         29.0240   40.2130   30.0800 C.3     4  SER4        0.2055
    232 C          28.9340   39.2640   31.2830 C.2     4  SER4        0.2643
    233 O          28.4840   38.1240   31.1450 O.2     4  SER4       -0.2714
    234 CB         27.6320   40.7660   29.7610 C.3     4  SER4        0.2130
    235 OG         27.6140   41.4600   28.5250 O.3     4  SER4       -0.2179
    236 N          29.3510   39.7300   32.4590 N.am    5  ASP5       -0.1973
    237 CA         29.3290   38.8910   33.6570 C.3     5  ASP5        0.1651
    238 C          27.9900   38.8320   34.3960 C.2     5  ASP5        0.2291
    239 O          27.7810   37.9500   35.2350 O.2     5  ASP5       -0.2864
    240 CB         30.4180   39.3350   34.6440 C.3     5  ASP5        0.0714
    241 CG         30.2080   40.7540   35.1630 C.2     5  ASP5        0.0525
    242 OD1        29.0540   41.2390   35.1710 O.co2   5  ASP5       -0.5491
    243 OD2        31.2030   41.3820   35.5820 O.co2   5  ASP5       -0.5491
    244 N          25.4440   44.1010   33.8310 N.3     1  SER1       -0.1217
    245 CA         26.5730   44.4250   32.9580 C.3     1  SER1        0.1889
    246 CB         26.1790   44.3100   31.4940 C.2     1  SER1        0.2288
    247 OG         26.5730   45.1360   30.6700 O.2     1  SER1       -0.2866
    248 C          27.7560   43.4870   33.2270 C.3     1  SER1        0.2089
    249 O          28.4090   43.8130   34.4410 O.3     1  SER1       -0.2183
    250 N          24.2070   47.3770   30.4050 N.3     1  ARG1       -0.1231
    251 CA         25.0810   48.5420   30.2940 C.3     1  ARG1        0.1694
    252 C          26.0050   48.4250   29.0830 C.2     1  ARG1        0.2591
    253 O          26.2060   49.3920   28.3470 O.2     1  ARG1       -0.2718
    254 CB         25.9340   48.6900   31.5600 C.3     1  ARG1        0.0321
    255 CG         26.7300   49.9890   31.6210 C.3     1  ARG1        0.0489
    256 CD         27.6810   50.0060   32.8040 C.3     1  ARG1        0.2205
    257 NE         28.8860   49.2190   32.5490 N.pl3   1  ARG1       -0.0865
    258 CZ         29.9190   49.6400   31.8240 C.cat   1  ARG1        0.5346
    259 NH1        29.9040   50.8490   31.2800 N.pl3   1  ARG1        0.1354
    260 NH2        30.9680   48.8490   31.6370 N.pl3   1  ARG1        0.1354
    261 N          26.5650   47.2340   28.8880 N.am    2  GLU2       -0.1979
    262 CA         27.4770   46.9730   27.7770 C.3     2  GLU2        0.1600
    263 C          26.8030   47.0110   26.4070 C.2     2  GLU2        0.2287
    264 O          27.3430   47.5840   25.4600 O.2     2  GLU2       -0.2864
    265 CB         28.1650   45.6220   27.9810 C.3     2  GLU2        0.0356
    266 CG         29.2970   45.6760   28.9810 C.3     2  GLU2        0.0439
    267 CD         29.7950   44.3040   29.3880 C.2     2  GLU2        0.0504
    268 OE1        29.5190   43.3240   28.6610 O.co2   2  GLU2       -0.5492
    269 OE2        30.4740   44.2120   30.4340 O.co2   2  GLU2       -0.5492
@<TRIPOS>UNITY_ATOM_ATTR
39 1
charge -1
48 1
charge -1
159 1
charge -1
178 1
charge -1
242 1
charge -1
268 1
charge -1
@<TRIPOS>BOND
     1     1     2    1
     2     2     3    1
     3     2     5    1
     4     3     4    2
     5     5     6    1
     6     6     7    1
     7     7     8    1
     8     8     9    1
     9    10    11    1
    10    11    14    1
    11    11    12    1
    12    12    20   am
    13    12    13    2
    14    14    15    1
    15    15    16    2
    16    15    17    1
    17    16    18    1
    18    17    19    1
    19    18    19    2
    20    20    21    1
    21    21    24    1
    22    21    22    1
    23    22    32   am
    24    22    23    2
    25    24    25    1
    26    25    27   ar
    27    25    26   ar
    28    26    28   ar
    29    27    29   ar
    30    28    30   ar
    31    29    30   ar
    32    30    31    1
    33    32    33    1
    34    33    36    1
    35    33    34    1
    36    34    41   am
    37    34    35    2
    38    36    37    1
    39    37    38    1
    40    38    39   ar
    41    38    40   ar
    42    41    42    1
    43    42    45    1
    44    42    43    1
    45    43    50   am
    46    43    44    2
    47    45    46    1
    48    46    47    1
    49    47    49   ar
    50    47    48   ar
    51    50    51    1
    52    51    54    1
    53    51    52    1
    54    52    53    2
    55    54    55    1
    56    55    57   ar
    57    55    56   ar
    58    56    58   ar
    59    57    59   ar
    60    58    59   ar
    61    60    61    1
    62    61    62    1
    63    61    64    1
    64    62    63    2
    65    64    65    1
    66    65    66    1
    67    66    67    1
    68    67    68    1
    69    69    70    1
    70    70    71    1
    71    70    73    1
    72    71    72    2
    73    73    74    1
    74    74    75   ar
    75    74    76   ar
    76    75    77   ar
    77    76    78   ar
    78    77    79   ar
    79    78    79   ar
    80    80    81    1
    81    81    82    1
    82    81    84    1
    83    82    83    2
    84    82    85   am
    85    85    86    1
    86    86    87    1
    87    86    89    1
    88    87    88    2
    89    87    93   am
    90    89    90    1
    91    90    91    1
    92    90    92    1
    93    93    94    1
    94    94    95    1
    95    94    97    1
    96    95    96    2
    97    97    99    1
    98    97    98    1
    99    98   100    1
   100   101   102    1
   101   102   103    1
   102   102   105    1
   103   103   104    2
   104   103   113   am
   105   105   106    1
   106   106   107   ar
   107   106   108   ar
   108   107   109   ar
   109   108   110   ar
   110   109   111   ar
   111   110   111   ar
   112   111   112    1
   113   113   114    1
   114   114   115    1
   115   114   117    1
   116   115   116    2
   117   117   118    1
   118   117   119    1
   119   118   120    1
   120   121   122    1
   121   122   123    1
   122   122   125    1
   123   123   124    2
   124   125   126    1
   125   126   127    1
   126   127   128    1
   127   128   129    2
   128   129   130    1
   129   129   131    1
   130   132   133    1
   131   133   136    1
   132   133   134    1
   133   134   135    2
   134   134   137   am
   135   137   138    1
   136   138   139    1
   137   139   140    2
   138   139   141   am
   139   141   142    1
   140   142   143    1
   141   142   145    1
   142   143   144    2
   143   143   146   am
   144   146   147    1
   145   147   148    1
   146   147   150    1
   147   148   149    2
   148   148   153   am
   149   150   152    1
   150   150   151    1
   151   153   154    1
   152   154   155    1
   153   154   157    1
   154   155   156    2
   155   157   158    1
   156   158   159   ar
   157   158   160   ar
   158   161   162    1
   159   162   163    1
   160   162   165    1
   161   163   164    2
   162   165   166    1
   163   166   167    1
   164   167   168    1
   165   168   169    2
   166   169   171    1
   167   169   170    1
   168   172   173    1
   169   173   176    1
   170   173   174    1
   171   174   180   am
   172   174   175    2
   173   176   177    1
   174   177   179   ar
   175   177   178   ar
   176   180   181    1
   177   181   184    1
   178   181   182    1
   179   182   183    2
   180   182   185   am
   181   185   186    1
   182   186   187    1
   183   186   189    1
   184   187   193   am
   185   187   188    2
   186   189   191    1
   187   189   190    1
   188   190   192    1
   189   193   194    1
   190   194   197    1
   191   194   195    1
   192   195   199   am
   193   195   196    2
   194   197   198    1
   195   199   200    1
   196   200   201    1
   197   200   203    1
   198   201   202    2
   199   203   204    1
   200   204   205    2
   201   204   206   am
   202   207   208    1
   203   208   211    1
   204   208   209    1
   205   209   215   am
   206   209   210    2
   207   211   213    1
   208   211   212    1
   209   212   214    1
   210   215   216    1
   211   216   219    1
   212   216   217    1
   213   217   218    2
   214   217   225   am
   215   219   220    1
   216   220   222   ar
   217   220   221   ar
   218   221   223   ar
   219   222   224   ar
   220   223   224   ar
   221   225   226    1
   222   226   229    1
   223   226   227    1
   224   227   230   am
   225   227   228    2
   226   230   231    1
   227   231   234    1
   228   231   232    1
   229   232   233    2
   230   232   236   am
   231   234   235    1
   232   236   237    1
   233   237   238    1
   234   237   240    1
   235   238   239    2
   236   240   241    1
   237   241   242   ar
   238   241   243   ar
   239   244   245    1
   240   245   246    1
   241   245   248    1
   242   246   247    2
   243   248   249    1
   244   250   251    1
   245   251   252    1
   246   251   254    1
   247   252   253    2
   248   252   261   am
   249   254   255    1
   250   255   256    1
   251   256   257    1
   252   257   258    2
   253   258   259    1
   254   258   260    1
   255   261   262    1
   256   262   263    1
   257   262   265    1
   258   263   264    2
   259   265   266    1
   260   266   267    1
   261   267   268   ar
   262   267   269   ar
