@<TRIPOS>MOLECULE
./1goy/protein.pdb
 195 190 0 0 0
SMALL
GASTEIGER

@<TRIPOS>ATOM
      1 N           7.9010   50.2560    1.7220 N.3     1  THR1       -0.1203
      2 CA          8.0220   50.4060    3.1700 C.3     1  THR1        0.1994
      3 C           7.0450   49.4330    3.8470 C.2     1  THR1        0.2618
      4 O           6.2020   48.7840    3.1850 O.2     1  THR1       -0.2717
      5 CB          7.7610   51.8580    3.6080 C.3     1  THR1        0.1784
      6 OG1         6.4380   52.2640    3.1960 O.3     1  THR1       -0.2211
      7 CG2         8.7470   52.8300    2.9370 C.3     1  THR1        0.0376
      8 N           7.1860   49.3140    5.1670 N.am    2  LYS2       -0.1965
      9 CA          6.3240   48.4560    5.9620 C.3     2  LYS2        0.1728
     10 C           4.8300   48.7740    5.8560 C.2     2  LYS2        0.2616
     11 O           4.0160   47.8830    5.6720 O.2     2  LYS2       -0.2715
     12 CB          6.8250   48.4440    7.3990 C.3     2  LYS2        0.0311
     13 CG          7.8380   47.3250    7.5330 C.3     2  LYS2        0.0038
     14 CD          8.5770   47.3270    8.8290 C.3     2  LYS2        0.0206
     15 CE          9.6470   46.3020    8.6860 C.3     2  LYS2        0.1093
     16 NZ         10.8390   46.6930    9.4490 N.3     2  LYS2       -0.1314
     17 N           4.4690   50.0420    5.9710 N.am    3  SER3       -0.1950
     18 CA          3.0670   50.4830    5.8360 C.3     3  SER3        0.1924
     19 CB          2.5270   50.2380    4.4090 C.2     3  SER3        0.2314
     20 OG          1.3740   49.8480    4.3150 O.2     3  SER3       -0.2863
     21 C           2.8840   51.9350    6.2710 C.3     3  SER3        0.2116
     22 O           3.4620   52.7870    5.3190 O.3     3  SER3       -0.2180
     23 N           3.6210   47.7160    2.4310 N.3     1  ALA1       -0.1231
     24 CA          3.4630   46.2560    2.4680 C.3     1  ALA1        0.1694
     25 C           2.1750   45.8410    3.2470 C.2     1  ALA1        0.2592
     26 O           1.4050   44.9910    2.7820 O.2     1  ALA1       -0.2718
     27 CB          4.6510   45.6590    3.1160 C.3     1  ALA1        0.0304
     28 N           1.9620   46.4560    4.4240 N.am    2  SER2       -0.1952
     29 CA          0.7650   46.2010    5.2470 C.3     2  SER2        0.1924
     30 CB         -0.5380   46.5530    4.5080 C.2     2  SER2        0.2314
     31 OG         -1.4830   45.7630    4.5650 O.2     2  SER2       -0.2863
     32 C           0.8280   46.9370    6.5820 C.3     2  SER2        0.2116
     33 O           1.8800   46.4230    7.3700 O.3     2  SER2       -0.2180
     34 N           0.2900   42.2620    3.5130 N.3     1  TRP1       -0.1227
     35 CA          1.3850   41.6200    4.2240 C.3     1  TRP1        0.1734
     36 C           1.1390   41.6540    5.7090 C.2     1  TRP1        0.2595
     37 O           0.7270   42.6680    6.2720 O.2     1  TRP1       -0.2718
     38 CB          2.7440   42.2950    3.9110 C.3     1  TRP1        0.0527
     39 CG          3.8810   41.8020    4.7650 C.2     1  TRP1       -0.0139
     40 CD1         4.4700   40.5680    4.7060 C.2     1  TRP1        0.0907
     41 CD2         4.5500   42.5200    5.8140 C.3     1  TRP1        0.0819
     42 NE1         5.4760   40.4850    5.6360 N.2     1  TRP1       -0.2482
     43 CE2         5.5560   41.6670    6.3310 C.2     1  TRP1        0.0665
     44 CE3         4.4120   43.8160    6.3650 C.2     1  TRP1       -0.0164
     45 CZ2         6.4240   42.0560    7.3910 C.2     1  TRP1        0.0153
     46 CZ3         5.2800   44.2230    7.4210 C.2     1  TRP1       -0.0038
     47 CH2         6.2740   43.3330    7.9170 C.2     1  TRP1        0.0009
     48 N           1.3790   40.5070    6.3330 N.am    2  VAL2       -0.1966
     49 CA          1.3100   40.3960    7.7780 C.3     2  VAL2        0.1727
     50 C           2.6000   39.7790    8.3020 C.2     2  VAL2        0.2616
     51 O           3.0430   38.7590    7.8240 O.2     2  VAL2       -0.2715
     52 CB         -0.0680   39.7980    8.3480 C.3     2  VAL2        0.0290
     53 CG1        -1.1240   39.5100    7.2650 C.3     2  VAL2        0.0023
     54 CG2         0.1140   38.6600    9.3440 C.3     2  VAL2        0.0023
     55 N           3.2040   40.4990    9.2390 N.am    3  ALA3       -0.1963
     56 CA          4.3930   40.0670    9.9470 C.3     3  ALA3        0.1728
     57 C           4.1220   38.6900   10.5450 C.2     3  ALA3        0.2617
     58 O           3.1950   38.5640   11.3970 O.2     3  ALA3       -0.2715
     59 CB          4.7280   41.0690   11.0540 C.3     3  ALA3        0.0334
     60 N           4.8750   37.6870   10.0670 N.am    4  SER4       -0.1936
     61 CA          4.8670   36.2930   10.5790 C.3     4  SER4        0.2055
     62 C           4.2310   35.2760    9.6730 C.2     4  SER4        0.2643
     63 O           4.4320   34.0730    9.8560 O.2     4  SER4       -0.2714
     64 CB          4.2590   36.1270   11.9960 C.3     4  SER4        0.2130
     65 OG          5.1930   36.5600   12.9660 O.3     4  SER4       -0.2179
     66 N           3.4250   35.7840    8.7440 N.am    5  LYS5       -0.1963
     67 CA          2.7130   35.0120    7.7560 C.3     5  LYS5        0.1728
     68 C           3.6230   34.6280    6.5990 C.2     5  LYS5        0.2617
     69 O           3.3880   33.5920    5.9940 O.2     5  LYS5       -0.2715
     70 CB          1.4680   35.7690    7.2770 C.3     5  LYS5        0.0311
     71 CG          0.2450   35.4140    8.1190 C.3     5  LYS5        0.0038
     72 CD         -0.9670   35.0040    7.2730 C.3     5  LYS5        0.0206
     73 CE         -2.0280   36.1000    7.1480 C.3     5  LYS5        0.1093
     74 NZ         -3.2410   35.5500    6.4750 N.3     5  LYS5       -0.1314
     75 N           4.6870   35.3920    6.3400 N.am    6  GLY6       -0.1940
     76 CA          5.6290   35.1440    5.2480 C.3     6  GLY6        0.2014
     77 C           4.9950   35.2160    3.8770 C.2     6  GLY6        0.2639
     78 O           5.3470   34.4200    2.9860 O.2     6  GLY6       -0.2714
     79 N           4.0420   36.1390    3.7360 N.am    7  ASP7       -0.1959
     80 CA          3.2310   36.2870    2.5130 C.3     7  ASP7        0.1783
     81 C           3.5870   37.3830    1.5280 C.2     7  ASP7        0.2620
     82 O           2.9210   37.5260    0.4750 O.2     7  ASP7       -0.2715
     83 CB          1.7240   36.2720    2.8500 C.3     7  ASP7        0.0728
     84 CG          1.2260   37.5190    3.5960 C.2     7  ASP7        0.0526
     85 OD1         0.0490   37.8540    3.4540 O.co2   7  ASP7       -0.5491
     86 OD2         2.0700   38.1750    4.4090 O.co2   7  ASP7       -0.5491
     87 N           4.6210   38.1470    1.8570 N.am    8  LEU8       -0.1963
     88 CA          5.0360   39.2730    1.0290 C.3     8  LEU8        0.1728
     89 C           5.0260   39.0310   -0.4890 C.2     8  LEU8        0.2616
     90 O           4.4380   39.8290   -1.2140 O.2     8  LEU8       -0.2715
     91 CB          6.3680   39.8980    1.4810 C.3     8  LEU8        0.0311
     92 CG          6.5600   41.2570    0.7910 C.3     8  LEU8        0.0022
     93 CD2         5.6500   42.3860    1.3550 C.3     8  LEU8        0.0001
     94 CD1         8.0390   41.6200    0.7880 C.3     8  LEU8        0.0001
     95 N           5.6410   37.9330   -0.9390 N.am    9  ALA9       -0.1977
     96 CA          5.7610   37.6100   -2.3590 C.3     9  ALA9        0.1597
     97 C           4.4140   37.3040   -3.0230 C.2     9  ALA9        0.2287
     98 O           4.2860   37.4670   -4.2200 O.2     9  ALA9       -0.2864
     99 CB          6.6720   36.4790   -2.5680 C.3     9  ALA9        0.0319
    100 N           1.4180   38.7830   -1.8950 N.3     1  VAL1       -0.1245
    101 CA          0.5940   39.9990   -1.9500 C.3     1  VAL1        0.1561
    102 C           1.2240   41.1420   -2.7670 C.2     1  VAL1        0.2260
    103 O           0.5190   42.0590   -3.2240 O.2     1  VAL1       -0.2867
    104 CB          0.1140   40.4700   -0.5640 C.3     1  VAL1        0.0252
    105 CG1        -0.7220   39.4060    0.0890 C.3     1  VAL1        0.0019
    106 CG2         1.2770   40.9170    0.3550 C.3     1  VAL1        0.0019
    107 N          10.3340   43.8890   -2.2220 N.3     1  SER1       -0.1202
    108 CA         11.0850   43.7120   -0.9860 C.3     1  SER1        0.2020
    109 C          10.7540   44.8560   -0.0520 C.2     1  SER1        0.2618
    110 O          10.4820   45.9710   -0.4860 O.2     1  SER1       -0.2717
    111 CB         12.5920   43.7670   -1.2610 C.3     1  SER1        0.2103
    112 OG         13.0540   42.6290   -1.9830 O.3     1  SER1       -0.2182
    113 N          10.8720   44.5940    1.2410 N.am    2  ILE2       -0.1979
    114 CA         10.6970   45.6350    2.2350 C.3     2  ILE2        0.1595
    115 C          12.0060   46.4090    2.4100 C.2     2  ILE2        0.2287
    116 O          13.0750   45.7990    2.4860 O.2     2  ILE2       -0.2864
    117 CB         10.1890   45.0490    3.5810 C.3     2  ILE2        0.0276
    118 CG1         8.7480   44.5340    3.3860 C.3     2  ILE2        0.0022
    119 CG2        10.3140   46.1320    4.7160 C.3     2  ILE2        0.0022
    120 CD1         8.2120   43.7110    4.5200 C.3     2  ILE2        0.0001
    121 N          15.7760   45.2850    3.0900 N.3     1  ASP1       -0.1241
    122 CA         15.9950   43.8440    2.9910 C.3     1  ASP1        0.1616
    123 C          16.8410   43.5500    1.7620 C.2     1  ASP1        0.2264
    124 O          16.6080   44.1270    0.6790 O.2     1  ASP1       -0.2867
    125 CB         14.6780   43.0510    2.7980 C.3     1  ASP1        0.0687
    126 CG         13.8150   42.9200    4.0660 C.2     1  ASP1        0.0522
    127 OD2        13.9700   43.6810    5.0400 O.co2   1  ASP1       -0.5491
    128 OD1        12.9190   42.0470    4.1390 O.co2   1  ASP1       -0.5491
    129 N          15.9660   39.0910   -0.6750 N.3     1  TYR1       -0.1241
    130 CA         14.6520   38.5110   -0.4870 C.3     1  TYR1        0.1605
    131 C          14.0770   38.0480   -1.8370 C.2     1  TYR1        0.2264
    132 O          14.2780   38.7260   -2.8300 O.2     1  TYR1       -0.2867
    133 CB         13.6810   39.5140    0.1640 C.3     1  TYR1        0.0534
    134 CG         12.3290   38.9190    0.3870 C.ar    1  TYR1       -0.0201
    135 CD2        12.1580   37.9340    1.3710 C.ar    1  TYR1       -0.0009
    136 CD1        11.2330   39.2740   -0.4260 C.ar    1  TYR1       -0.0009
    137 CE2        10.8950   37.3320    1.5780 C.ar    1  TYR1        0.0417
    138 CE1         9.9280   38.6590   -0.2290 C.ar    1  TYR1        0.0417
    139 CZ          9.7930   37.7050    0.7800 C.ar    1  TYR1        0.1957
    140 OH          8.5570   37.1230    0.9740 O.3     1  TYR1       -0.2866
    141 N           8.6500   34.0000    0.6830 N.3     1  GLY1       -0.1210
    142 CA          8.5350   33.3310    1.9540 C.3     1  GLY1        0.1956
    143 C           8.8890   34.2620    3.0800 C.2     1  GLY1        0.2612
    144 O           8.7740   35.4870    2.9700 O.2     1  GLY1       -0.2717
    145 N           9.2990   33.6690    4.1790 N.am    2  PHE2       -0.1962
    146 CA          9.7580   34.3810    5.3770 C.3     2  PHE2        0.1771
    147 C          10.9740   35.2310    5.0740 C.2     2  PHE2        0.2619
    148 O          11.8600   34.7940    4.3610 O.2     2  PHE2       -0.2715
    149 CB         10.0750   33.3950    6.4770 C.3     2  PHE2        0.0574
    150 CG          8.8700   32.6390    6.9320 C.ar    2  PHE2       -0.0200
    151 CD1         8.7630   31.2630    6.7160 C.ar    2  PHE2       -0.0042
    152 CD2         7.7910   33.3340    7.5230 C.ar    2  PHE2       -0.0042
    153 CE1         7.6030   30.5640    7.1120 C.ar    2  PHE2       -0.0003
    154 CE2         6.6310   32.6570    7.9220 C.ar    2  PHE2       -0.0003
    155 CZ          6.5330   31.2790    7.7240 C.ar    2  PHE2       -0.0000
    156 N          10.9420   36.4670    5.5580 N.am    3  ARG3       -0.1963
    157 CA         12.0560   37.3780    5.4290 C.3     3  ARG3        0.1729
    158 C          13.3370   36.7850    6.0560 C.2     3  ARG3        0.2616
    159 O          13.2690   36.0200    7.0490 O.2     3  ARG3       -0.2715
    160 CB         11.7010   38.6460    6.1280 C.3     3  ARG3        0.0348
    161 CG         10.7370   39.5460    5.3400 C.3     3  ARG3        0.0492
    162 CD         10.2100   40.6730    6.1740 C.3     3  ARG3        0.2205
    163 NE         11.2380   41.6990    6.3510 N.pl3   3  ARG3       -0.0865
    164 CZ         11.3830   42.4740    7.4130 C.cat   3  ARG3        0.5346
    165 NH2        10.5360   42.4320    8.4310 N.pl3   3  ARG3        0.1354
    166 NH1        12.3590   43.3730    7.4170 N.pl3   3  ARG3        0.1354
    167 N          14.4830   37.1050    5.4510 N.am    4  ASN4       -0.1972
    168 CA         15.7740   36.5890    5.8930 C.3     4  ASN4        0.1688
    169 C          16.4290   37.5380    6.9150 C.2     4  ASN4        0.2292
    170 O          15.7630   38.4360    7.4590 O.2     4  ASN4       -0.2864
    171 CB         16.6570   36.3430    4.6580 C.3     4  ASN4        0.1181
    172 CG         16.9780   37.6430    3.9230 C.2     4  ASN4        0.2629
    173 OD1        17.0670   38.7280    4.5360 O.2     4  ASN4       -0.2716
    174 ND2        17.1350   37.5520    2.6270 N.am    4  ASN4       -0.0877
    175 N          20.3980   42.7020    5.5530 N.3     1  ARG1       -0.1245
    176 CA         19.9860   44.0930    5.4690 C.3     1  ARG1        0.1563
    177 C          21.1280   44.9960    5.0800 C.2     1  ARG1        0.2260
    178 O          22.2780   44.7190    5.4730 O.2     1  ARG1       -0.2867
    179 CB         19.4500   44.6270    6.8320 C.3     1  ARG1        0.0307
    180 CG         18.4330   43.7060    7.5690 C.3     1  ARG1        0.0489
    181 CD         17.0260   43.9400    7.0160 C.3     1  ARG1        0.2205
    182 NE         16.0040   43.2020    7.7540 N.pl3   1  ARG1       -0.0865
    183 CZ         15.6470   41.9320    7.4980 C.cat   1  ARG1        0.5346
    184 NH1        16.2010   41.2530    6.5000 N.pl3   1  ARG1        0.1354
    185 NH2        14.7130   41.3480    8.2280 N.pl3   1  ARG1        0.1354
    186 N          21.0060   40.2360   11.0260 N.3     1  HIS1       -0.1241
    187 CA         19.9430   41.0770   11.5470 C.3     1  HIS1        0.1621
    188 C          20.4450   42.1050   12.5900 C.2     1  HIS1        0.2264
    189 O          19.9580   42.1800   13.7360 O.2     1  HIS1       -0.2867
    190 CB         18.7930   40.1830   12.0800 C.3     1  HIS1        0.0745
    191 CG         17.4780   40.8780   12.2260 C.ar    1  HIS1        0.0817
    192 ND1        16.9540   41.2170   13.4570 N.ar    1  HIS1       -0.2268
    193 CD2        16.5790   41.2980   11.3010 C.ar    1  HIS1        0.1154
    194 CE1        15.7990   41.8420   13.2830 C.ar    1  HIS1        0.1986
    195 NE2        15.5440   41.8920   11.9840 N.ar    1  HIS1       -0.2212
@<TRIPOS>UNITY_ATOM_ATTR
85 1
charge -1
127 1
charge -1
@<TRIPOS>BOND
     1     1     2    1
     2     2     5    1
     3     2     3    1
     4     3     4    2
     5     3     8   am
     6     5     7    1
     7     5     6    1
     8     8     9    1
     9     9    10    1
    10     9    12    1
    11    10    11    2
    12    10    17   am
    13    12    13    1
    14    13    14    1
    15    14    15    1
    16    15    16    1
    17    17    18    1
    18    18    19    1
    19    18    21    1
    20    19    20    2
    21    21    22    1
    22    23    24    1
    23    24    27    1
    24    24    25    1
    25    25    26    2
    26    25    28   am
    27    28    29    1
    28    29    30    1
    29    29    32    1
    30    30    31    2
    31    32    33    1
    32    34    35    1
    33    35    38    1
    34    35    36    1
    35    36    37    2
    36    36    48   am
    37    38    39    1
    38    39    40    2
    39    39    41    1
    40    40    42    1
    41    41    43    1
    42    41    44    1
    43    42    43    2
    44    43    45    1
    45    44    46    2
    46    45    47    2
    47    46    47    1
    48    48    49    1
    49    49    50    1
    50    49    52    1
    51    50    51    2
    52    50    55   am
    53    52    53    1
    54    52    54    1
    55    55    56    1
    56    56    57    1
    57    56    59    1
    58    57    60   am
    59    57    58    2
    60    60    61    1
    61    61    62    1
    62    61    64    1
    63    62    66   am
    64    62    63    2
    65    64    65    1
    66    66    67    1
    67    67    68    1
    68    67    70    1
    69    68    69    2
    70    68    75   am
    71    70    71    1
    72    71    72    1
    73    72    73    1
    74    73    74    1
    75    75    76    1
    76    76    77    1
    77    77    78    2
    78    77    79   am
    79    79    80    1
    80    80    81    1
    81    80    83    1
    82    81    82    2
    83    81    87   am
    84    83    84    1
    85    84    85   ar
    86    84    86   ar
    87    87    88    1
    88    88    89    1
    89    88    91    1
    90    89    90    2
    91    89    95   am
    92    91    92    1
    93    92    94    1
    94    92    93    1
    95    95    96    1
    96    96    97    1
    97    96    99    1
    98    97    98    2
    99   100   101    1
   100   101   102    1
   101   101   104    1
   102   102   103    2
   103   104   105    1
   104   104   106    1
   105   107   108    1
   106   108   111    1
   107   108   109    1
   108   109   110    2
   109   109   113   am
   110   111   112    1
   111   113   114    1
   112   114   115    1
   113   114   117    1
   114   115   116    2
   115   117   118    1
   116   117   119    1
   117   118   120    1
   118   121   122    1
   119   122   123    1
   120   122   125    1
   121   123   124    2
   122   125   126    1
   123   126   128   ar
   124   126   127   ar
   125   129   130    1
   126   130   131    1
   127   130   133    1
   128   131   132    2
   129   133   134    1
   130   134   136   ar
   131   134   135   ar
   132   135   137   ar
   133   136   138   ar
   134   137   139   ar
   135   138   139   ar
   136   139   140    1
   137   141   142    1
   138   142   143    1
   139   143   144    2
   140   143   145   am
   141   145   146    1
   142   146   147    1
   143   146   149    1
   144   147   148    2
   145   147   156   am
   146   149   150    1
   147   150   151   ar
   148   150   152   ar
   149   151   153   ar
   150   152   154   ar
   151   153   155   ar
   152   154   155   ar
   153   156   157    1
   154   157   158    1
   155   157   160    1
   156   158   167   am
   157   158   159    2
   158   160   161    1
   159   161   162    1
   160   162   163    1
   161   163   164    2
   162   164   166    1
   163   164   165    1
   164   167   168    1
   165   168   171    1
   166   168   169    1
   167   169   170    2
   168   171   172    1
   169   172   174   am
   170   172   173    2
   171   175   176    1
   172   176   177    1
   173   176   179    1
   174   177   178    2
   175   179   180    1
   176   180   181    1
   177   181   182    1
   178   182   183    2
   179   183   184    1
   180   183   185    1
   181   186   187    1
   182   187   190    1
   183   187   188    1
   184   188   189    2
   185   190   191    1
   186   191   193   ar
   187   191   192   ar
   188   192   194   ar
   189   193   195   ar
   190   194   195   ar
