@<TRIPOS>MOLECULE
./2cx8/protein.pdb
 210 209 0 0 0
SMALL
GASTEIGER

@<TRIPOS>ATOM
      1 N          23.3620   -1.5690   26.9810 N.3     1  VAL1       -0.1231
      2 CA         23.9460   -0.2410   27.0780 C.3     1  VAL1        0.1692
      3 C          25.0670   -0.1010   26.0770 C.2     1  VAL1        0.2592
      4 O          25.9950   -0.9080   26.0520 O.2     1  VAL1       -0.2718
      5 CB         24.4920    0.0910   28.4960 C.3     1  VAL1        0.0266
      6 CG2        25.5320   -0.9390   28.9420 C.3     1  VAL1        0.0020
      7 CG1        25.1080    1.4780   28.4880 C.3     1  VAL1        0.0020
      8 N          24.9620    0.9170   25.2320 N.am    2  ALA2       -0.1966
      9 CA         25.9850    1.1710   24.2300 C.3     2  ALA2        0.1728
     10 C          27.2190    1.7320   24.9450 C.2     2  ALA2        0.2616
     11 O          27.1860    2.8140   25.5350 O.2     2  ALA2       -0.2715
     12 CB         25.4670    2.1590   23.1780 C.3     2  ALA2        0.0334
     13 N          28.3100    0.9890   24.9040 N.am    3  HIS3       -0.1959
     14 CA         29.5010    1.4540   25.5740 C.3     3  HIS3        0.1787
     15 C          30.6880    1.4090   24.6460 C.2     3  HIS3        0.2620
     16 O          30.8770    0.4320   23.9250 O.2     3  HIS3       -0.2715
     17 CB         29.7790    0.5970   26.8110 C.3     3  HIS3        0.0785
     18 CG         31.0170    0.9980   27.5480 C.ar    3  HIS3        0.0821
     19 ND1        31.7920    0.0970   28.2470 N.ar    3  HIS3       -0.2267
     20 CD2        31.6360    2.1980   27.6630 C.ar    3  HIS3        0.1154
     21 CE1        32.8380    0.7230   28.7550 C.ar    3  HIS3        0.1986
     22 NE2        32.7680    1.9980   28.4150 N.ar    3  HIS3       -0.2212
     23 N          31.4880    2.4690   24.6640 N.am    4  VAL4       -0.1963
     24 CA         32.6700    2.5170   23.8200 C.3     4  VAL4        0.1727
     25 C          33.5770    1.3490   24.1920 C.2     4  VAL4        0.2617
     26 O          34.0690    0.6290   23.3230 O.2     4  VAL4       -0.2715
     27 CB         33.4470    3.8280   24.0180 C.3     4  VAL4        0.0290
     28 CG1        34.6020    3.8880   23.0380 C.3     4  VAL4        0.0023
     29 CG2        32.5170    5.0210   23.8320 C.3     4  VAL4        0.0023
     30 N          33.7900    1.1600   25.4900 N.am    5  GLY5       -0.1940
     31 CA         34.6310    0.0670   25.9440 C.3     5  GLY5        0.2014
     32 C          33.8510   -1.2270   26.1100 C.2     5  GLY5        0.2638
     33 O          33.7880   -1.7890   27.2090 O.2     5  GLY5       -0.2714
     34 N          33.2610   -1.7000   25.0130 N.am    6  ALA6       -0.1977
     35 CA         32.4670   -2.9250   25.0240 C.3     6  ALA6        0.1597
     36 C          32.8060   -3.8120   23.8280 C.2     6  ALA6        0.2287
     37 O          33.2830   -3.3220   22.8010 O.2     6  ALA6       -0.2864
     38 CB         30.9860   -2.5730   25.0160 C.3     6  ALA6        0.0319
     39 N          20.3770    2.0360   26.7070 N.3     1  ALA1       -0.1231
     40 CA         21.0470    3.1760   27.3030 C.3     1  ALA1        0.1694
     41 C          22.1880    3.7000   26.4600 C.2     1  ALA1        0.2592
     42 O          23.0440    2.9440   25.9960 O.2     1  ALA1       -0.2718
     43 CB         21.5490    2.8240   28.6950 C.3     1  ALA1        0.0304
     44 N          22.1710    5.0150   26.2560 N.am    2  VAL2       -0.1966
     45 CA         23.1940    5.7280   25.4900 C.3     2  VAL2        0.1727
     46 C          23.6930    6.8920   26.3520 C.2     2  VAL2        0.2617
     47 O          22.9070    7.5430   27.0630 O.2     2  VAL2       -0.2715
     48 CB         22.6200    6.2810   24.1490 C.3     2  VAL2        0.0290
     49 CG2        23.6610    7.1400   23.4380 C.3     2  VAL2        0.0023
     50 CG1        22.2010    5.1170   23.2510 C.3     2  VAL2        0.0023
     51 N          24.9990    7.1350   26.3070 N.am    3  GLY3       -0.1941
     52 CA         25.5630    8.2150   27.0880 C.3     3  GLY3        0.1998
     53 C          25.5630    9.5390   26.3420 C.2     3  GLY3        0.2481
     54 O          25.3020    9.5750   25.1400 O.2     3  GLY3       -0.2729
     55 N          25.8780   10.6470   27.0320 N.am    4  PRO4       -0.2715
     56 CA         25.9240   11.9990   26.4650 C.3     4  PRO4        0.1536
     57 C          27.1910   12.1550   25.6450 C.2     4  PRO4        0.2598
     58 O          27.9530   11.1970   25.5090 O.2     4  PRO4       -0.2715
     59 CB         25.9350   12.8810   27.7080 C.3     4  PRO4        0.0310
     60 CG         26.8300   12.0920   28.6260 C.3     4  PRO4        0.0237
     61 CD         26.3140   10.6590   28.4420 C.3     4  PRO4        0.0939
     62 N          27.4260   13.3620   25.1300 N.am    5  GLU5       -0.1964
     63 CA         28.6100   13.6270   24.3170 C.3     5  GLU5        0.1731
     64 C          29.8900   13.1450   24.9980 C.2     5  GLU5        0.2617
     65 O          30.7410   12.5300   24.3660 O.2     5  GLU5       -0.2715
     66 CB         28.7380   15.1240   23.9960 C.3     5  GLU5        0.0370
     67 CG         27.5990   15.7250   23.1690 C.3     5  GLU5        0.0440
     68 CD         26.4340   16.1390   24.0360 C.2     5  GLU5        0.0504
     69 OE2        26.4460   15.7740   25.2310 O.co2   5  GLU5       -0.5492
     70 OE1        25.5060   16.8170   23.5340 O.co2   5  GLU5       -0.5492
     71 N          30.0210   13.4210   26.2900 N.am    6  GLY6       -0.1940
     72 CA         31.2050   12.9980   27.0120 C.3     6  GLY6        0.2014
     73 C          31.2570   11.4950   27.2140 C.2     6  GLY6        0.2639
     74 O          32.3340   10.9210   27.3720 O.2     6  GLY6       -0.2714
     75 N          30.0870   10.8590   27.2110 N.am    7  GLY7       -0.1939
     76 CA         30.0100    9.4200   27.3870 C.3     7  GLY7        0.2014
     77 C          29.7830    9.0010   28.8280 C.2     7  GLY7        0.2639
     78 O          29.9000    9.8180   29.7370 O.2     7  GLY7       -0.2714
     79 N          29.4340    7.7350   29.0430 N.am    8  PHE8       -0.1959
     80 CA         29.2340    7.2320   30.4020 C.3     8  PHE8        0.1771
     81 C          30.5910    7.0810   31.0910 C.2     8  PHE8        0.2619
     82 O          31.5900    6.7060   30.4620 O.2     8  PHE8       -0.2715
     83 CB         28.5530    5.8590   30.3910 C.3     8  PHE8        0.0574
     84 CG         27.0930    5.9030   30.0750 C.ar    8  PHE8       -0.0200
     85 CD1        26.5770    5.1570   29.0210 C.ar    8  PHE8       -0.0042
     86 CD2        26.2260    6.6760   30.8340 C.ar    8  PHE8       -0.0042
     87 CE1        25.2080    5.1790   28.7240 C.ar    8  PHE8       -0.0003
     88 CE2        24.8560    6.7080   30.5470 C.ar    8  PHE8       -0.0003
     89 CZ         24.3480    5.9540   29.4840 C.ar    8  PHE8       -0.0000
     90 N          30.6230    7.3720   32.3840 N.am    9  ALA9       -0.1963
     91 CA         31.8480    7.2280   33.1560 C.3     9  ALA9        0.1728
     92 C          32.0430    5.7370   33.4580 C.2     9  ALA9        0.2616
     93 O          31.1780    4.9120   33.1490 O.2     9  ALA9       -0.2715
     94 CB         31.7390    8.0200   34.4550 C.3     9  ALA9        0.0334
     95 N          33.1810    5.3890   34.0480 N.am   10  GLU10      -0.1977
     96 CA         33.4510    3.9950   34.4030 C.3    10  GLU10       0.1600
     97 C          32.4500    3.5150   35.4620 C.2    10  GLU10       0.2287
     98 O          31.9250    2.4070   35.3740 O.2    10  GLU10      -0.2864
     99 CB         34.8900    3.8580   34.9250 C.3    10  GLU10       0.0356
    100 CG         35.2240    2.5270   35.6030 C.3    10  GLU10       0.0439
    101 CD         35.2430    2.6070   37.1430 C.2    10  GLU10       0.0504
    102 OE1        36.0200    3.4270   37.7040 O.co2  10  GLU10      -0.5492
    103 OE2        34.4830    1.8380   37.7870 O.co2  10  GLU10      -0.5492
    104 N          28.7430    2.9650   33.7960 N.3     1  VAL1       -0.1245
    105 CA         28.5500    1.7600   33.0060 C.3     1  VAL1        0.1561
    106 C          28.3800    0.5700   33.9440 C.2     1  VAL1        0.2260
    107 O          27.5080   -0.2830   33.7340 O.2     1  VAL1       -0.2867
    108 CB         29.7440    1.5090   32.0720 C.3     1  VAL1        0.0252
    109 CG2        29.6510    0.1190   31.4660 C.3     1  VAL1        0.0019
    110 CG1        29.7680    2.5690   30.9820 C.3     1  VAL1        0.0019
    111 N          27.3860   -3.1970   25.0610 N.3     1  VAL1       -0.1231
    112 CA         27.4440   -3.6450   23.6870 C.3     1  VAL1        0.1692
    113 C          28.2080   -2.6730   22.8070 C.2     1  VAL1        0.2593
    114 O          28.2230   -1.4690   23.0390 O.2     1  VAL1       -0.2718
    115 CB         26.0250   -3.8790   23.0970 C.3     1  VAL1        0.0266
    116 CG2        25.3010   -4.9660   23.9080 C.3     1  VAL1        0.0020
    117 CG1        25.2100   -2.5800   23.0940 C.3     1  VAL1        0.0020
    118 N          28.8640   -3.2270   21.8010 N.am    2  SER2       -0.1938
    119 CA         29.6350   -2.4610   20.8450 C.3     2  SER2        0.2055
    120 C          28.7710   -2.0200   19.6790 C.2     2  SER2        0.2643
    121 O          27.8980   -2.7540   19.2330 O.2     2  SER2       -0.2714
    122 CB         30.7630   -3.3170   20.2850 C.3     2  SER2        0.2130
    123 OG         31.1890   -2.8140   19.0260 O.3     2  SER2       -0.2179
    124 N          29.0270   -0.8210   19.1790 N.am    3  LEU3       -0.1963
    125 CA         28.3070   -0.3170   18.0250 C.3     3  LEU3        0.1728
    126 C          29.3580   -0.1400   16.9420 C.2     3  LEU3        0.2617
    127 O          29.2100    0.6860   16.0460 O.2     3  LEU3       -0.2715
    128 CB         27.6300    1.0160   18.3300 C.3     3  LEU3        0.0311
    129 CG         26.3460    0.9210   19.1510 C.3     3  LEU3        0.0022
    130 CD2        25.7390    2.3100   19.3300 C.3     3  LEU3        0.0001
    131 CD1        25.3600    0.0020   18.4360 C.3     3  LEU3        0.0001
    132 N          30.4330   -0.9180   17.0460 N.am    4  GLY4       -0.1940
    133 CA         31.5000   -0.8350   16.0680 C.3     4  GLY4        0.2014
    134 C          32.7520   -0.1310   16.5600 C.2     4  GLY4        0.2639
    135 O          32.8100    0.3600   17.6900 O.2     4  GLY4       -0.2714
    136 N          33.7420   -0.0490   15.6760 N.am    5  ARG5       -0.1963
    137 CA         35.0380    0.5510   15.9860 C.3     5  ARG5        0.1729
    138 C          35.1490    2.0730   15.9480 C.2     5  ARG5        0.2616
    139 O          36.1240    2.6230   16.4460 O.2     5  ARG5       -0.2715
    140 CB         36.0850   -0.0460   15.0580 C.3     5  ARG5        0.0348
    141 CG         35.8970   -1.5410   14.8580 C.3     5  ARG5        0.0492
    142 CD         36.8640   -2.1250   13.8280 C.3     5  ARG5        0.2205
    143 NE         36.3460   -3.3610   13.2480 N.pl3   5  ARG5       -0.0865
    144 CZ         37.0480   -4.1940   12.4840 C.cat   5  ARG5        0.5346
    145 NH2        38.3170   -3.9400   12.1970 N.pl3   5  ARG5        0.1354
    146 NH1        36.4690   -5.2810   11.9900 N.pl3   5  ARG5        0.1354
    147 N          34.1710    2.7640   15.3730 N.am    6  ARG6       -0.1963
    148 CA         34.2500    4.2180   15.3010 C.3     6  ARG6        0.1729
    149 C          33.4250    4.8960   16.3790 C.2     6  ARG6        0.2616
    150 O          32.3630    4.4050   16.7440 O.2     6  ARG6       -0.2715
    151 CB         33.7840    4.6890   13.9340 C.3     6  ARG6        0.0348
    152 CG         34.6060    4.1300   12.7800 C.3     6  ARG6        0.0492
    153 CD         33.7240    3.9480   11.5830 C.3     6  ARG6        0.2205
    154 NE         32.6260    3.0590   11.9110 N.pl3   6  ARG6       -0.0865
    155 CZ         32.7200    1.7340   11.9530 C.cat   6  ARG6        0.5346
    156 NH1        33.8680    1.1320   11.6770 N.pl3   6  ARG6        0.1354
    157 NH2        31.6620    1.0050   12.2840 N.pl3   6  ARG6        0.1354
    158 N          33.9260    6.0110   16.9120 N.am    7  ILE7       -0.1963
    159 CA         33.1750    6.7440   17.9320 C.3     7  ILE7        0.1727
    160 C          31.9930    7.3570   17.2010 C.2     7  ILE7        0.2616
    161 O          32.1480    7.9540   16.1400 O.2     7  ILE7       -0.2715
    162 CB         34.0150    7.8650   18.5760 C.3     7  ILE7        0.0290
    163 CG1        35.0770    7.2540   19.4980 C.3     7  ILE7        0.0022
    164 CG2        33.1130    8.8140   19.3490 C.3     7  ILE7        0.0023
    165 CD1        36.1430    8.2510   19.9670 C.3     7  ILE7        0.0001
    166 N          30.8060    7.2000   17.7520 N.am    8  LEU8       -0.1963
    167 CA         29.6270    7.7290   17.0950 C.3     8  LEU8        0.1728
    168 C          29.0000    8.8100   17.9420 C.2     8  LEU8        0.2616
    169 O          29.1770    8.8140   19.1560 O.2     8  LEU8       -0.2715
    170 CB         28.6010    6.6100   16.8960 C.3     8  LEU8        0.0311
    171 CG         29.0780    5.3000   16.2620 C.3     8  LEU8        0.0022
    172 CD2        27.9650    4.2730   16.3780 C.3     8  LEU8        0.0001
    173 CD1        29.4960    5.5310   14.7920 C.3     8  LEU8        0.0001
    174 N          28.2700    9.7260   17.3130 N.am    9  ARG9       -0.1963
    175 CA         27.5750   10.7520   18.0800 C.3     9  ARG9        0.1729
    176 C          26.4770   10.0270   18.8620 C.2     9  ARG9        0.2616
    177 O          25.9410    9.0200   18.3990 O.2     9  ARG9       -0.2715
    178 CB         26.9080   11.7870   17.1630 C.3     9  ARG9        0.0348
    179 CG         27.8380   12.7910   16.4990 C.3     9  ARG9        0.0492
    180 CD         27.0620   13.6840   15.5290 C.3     9  ARG9        0.2205
    181 NE         26.6300   12.9470   14.3460 N.pl3   9  ARG9       -0.0865
    182 CZ         25.7840   13.4110   13.4310 C.cat   9  ARG9        0.5346
    183 NH2        25.2560   14.6240   13.5520 N.pl3   9  ARG9        0.1354
    184 NH1        25.4730   12.6620   12.3780 N.pl3   9  ARG9        0.1354
    185 N          26.1390   10.5450   20.0350 N.am   10  ALA10      -0.1963
    186 CA         25.0890    9.9620   20.8510 C.3    10  ALA10       0.1728
    187 C          23.7970    9.7450   20.0450 C.2    10  ALA10       0.2616
    188 O          23.0860    8.7430   20.2540 O.2    10  ALA10      -0.2715
    189 CB         24.8050   10.8710   22.0510 C.3    10  ALA10       0.0334
    190 N          23.4800   10.6940   19.1530 N.am   11  GLU11      -0.1963
    191 CA         22.2760   10.5980   18.3190 C.3    11  GLU11       0.1731
    192 C          22.3330    9.3720   17.4100 C.2    11  GLU11       0.2617
    193 O          21.3810    8.6100   17.3120 O.2    11  GLU11      -0.2715
    194 CB         22.0960   11.8460   17.4410 C.3    11  GLU11       0.0370
    195 CG         22.0220   13.1650   18.1910 C.3    11  GLU11       0.0440
    196 CD         23.3560   13.9070   18.1720 C.2    11  GLU11       0.0504
    197 OE2        24.3140   13.4430   18.8460 O.co2  11  GLU11      -0.5492
    198 OE1        23.4390   14.9400   17.4600 O.co2  11  GLU11      -0.5492
    199 N          23.4610    9.1990   16.7460 N.am   12  THR12      -0.1937
    200 CA         23.6570    8.0760   15.8500 C.3    12  THR12       0.2028
    201 C          23.7280    6.7500   16.6000 C.2    12  THR12       0.2642
    202 O          23.3220    5.7180   16.0730 O.2    12  THR12      -0.2714
    203 CB         24.9400    8.2440   15.0600 C.3    12  THR12       0.1808
    204 OG1        24.9750    9.5640   14.5000 O.3    12  THR12      -0.2208
    205 CG2        25.0200    7.2040   13.9540 C.3    12  THR12       0.0379
    206 N          24.2530    6.7850   17.8240 N.am   13  ALA13      -0.1977
    207 CA         24.3760    5.5890   18.6360 C.3    13  ALA13       0.1597
    208 C          22.9990    5.0830   19.0030 C.2    13  ALA13       0.2287
    209 O          22.7120    3.9010   18.8730 O.2    13  ALA13      -0.2864
    210 CB         25.1960    5.8770   19.9020 C.3    13  ALA13       0.0319
@<TRIPOS>UNITY_ATOM_ATTR
69 1
charge -1
102 1
charge -1
197 1
charge -1
@<TRIPOS>BOND
     1     1     2    1
     2     2     3    1
     3     2     5    1
     4     3     8   am
     5     3     4    2
     6     5     7    1
     7     5     6    1
     8     8     9    1
     9     9    12    1
    10     9    10    1
    11    10    13   am
    12    10    11    2
    13    13    14    1
    14    14    15    1
    15    14    17    1
    16    15    16    2
    17    15    23   am
    18    17    18    1
    19    18    20   ar
    20    18    19   ar
    21    19    21   ar
    22    20    22   ar
    23    21    22   ar
    24    23    24    1
    25    24    27    1
    26    24    25    1
    27    25    26    2
    28    25    30   am
    29    27    28    1
    30    27    29    1
    31    30    31    1
    32    31    32    1
    33    32    34   am
    34    32    33    2
    35    34    35    1
    36    35    36    1
    37    35    38    1
    38    36    37    2
    39    39    40    1
    40    40    41    1
    41    40    43    1
    42    41    42    2
    43    41    44   am
    44    44    45    1
    45    45    48    1
    46    45    46    1
    47    46    51   am
    48    46    47    2
    49    48    50    1
    50    48    49    1
    51    51    52    1
    52    52    53    1
    53    53    54    2
    54    53    55   am
    55    55    56    1
    56    55    61    1
    57    56    57    1
    58    56    59    1
    59    57    62   am
    60    57    58    2
    61    59    60    1
    62    60    61    1
    63    62    63    1
    64    63    66    1
    65    63    64    1
    66    64    65    2
    67    64    71   am
    68    66    67    1
    69    67    68    1
    70    68    70   ar
    71    68    69   ar
    72    71    72    1
    73    72    73    1
    74    73    75   am
    75    73    74    2
    76    75    76    1
    77    76    77    1
    78    77    79   am
    79    77    78    2
    80    79    80    1
    81    80    83    1
    82    80    81    1
    83    81    82    2
    84    81    90   am
    85    83    84    1
    86    84    85   ar
    87    84    86   ar
    88    85    87   ar
    89    86    88   ar
    90    87    89   ar
    91    88    89   ar
    92    90    91    1
    93    91    92    1
    94    91    94    1
    95    92    93    2
    96    92    95   am
    97    95    96    1
    98    96    99    1
    99    96    97    1
   100    97    98    2
   101    99   100    1
   102   100   101    1
   103   101   102   ar
   104   101   103   ar
   105   104   105    1
   106   105   108    1
   107   105   106    1
   108   106   107    2
   109   108   110    1
   110   108   109    1
   111   111   112    1
   112   112   113    1
   113   112   115    1
   114   113   118   am
   115   113   114    2
   116   115   117    1
   117   115   116    1
   118   118   119    1
   119   119   120    1
   120   119   122    1
   121   120   124   am
   122   120   121    2
   123   122   123    1
   124   124   125    1
   125   125   126    1
   126   125   128    1
   127   126   127    2
   128   126   132   am
   129   128   129    1
   130   129   131    1
   131   129   130    1
   132   132   133    1
   133   133   134    1
   134   134   136   am
   135   134   135    2
   136   136   137    1
   137   137   140    1
   138   137   138    1
   139   138   147   am
   140   138   139    2
   141   140   141    1
   142   141   142    1
   143   142   143    1
   144   143   144    2
   145   144   146    1
   146   144   145    1
   147   147   148    1
   148   148   151    1
   149   148   149    1
   150   149   150    2
   151   149   158   am
   152   151   152    1
   153   152   153    1
   154   153   154    1
   155   154   155    2
   156   155   156    1
   157   155   157    1
   158   158   159    1
   159   159   160    1
   160   159   162    1
   161   160   161    2
   162   160   166   am
   163   162   164    1
   164   162   163    1
   165   163   165    1
   166   166   167    1
   167   167   170    1
   168   167   168    1
   169   168   174   am
   170   168   169    2
   171   170   171    1
   172   171   173    1
   173   171   172    1
   174   174   175    1
   175   175   178    1
   176   175   176    1
   177   176   177    2
   178   176   185   am
   179   178   179    1
   180   179   180    1
   181   180   181    1
   182   181   182    2
   183   182   184    1
   184   182   183    1
   185   185   186    1
   186   186   187    1
   187   186   189    1
   188   187   190   am
   189   187   188    2
   190   190   191    1
   191   191   192    1
   192   191   194    1
   193   192   199   am
   194   192   193    2
   195   194   195    1
   196   195   196    1
   197   196   198   ar
   198   196   197   ar
   199   199   200    1
   200   200   203    1
   201   200   201    1
   202   201   202    2
   203   201   206   am
   204   203   205    1
   205   203   204    1
   206   206   207    1
   207   207   208    1
   208   207   210    1
   209   208   209    2
