@<TRIPOS>MOLECULE
./1q51/protein.pdb
 69 66 0 0 0
SMALL
GASTEIGER

@<TRIPOS>ATOM
      1 N         -13.5050    5.9840  144.7000 N.3     1  VAL1       -0.1245
      2 CA        -12.7860    5.2280  145.7320 C.3     1  VAL1        0.1561
      3 C         -13.6010    4.0320  146.2570 C.2     1  VAL1        0.2260
      4 O         -14.7540    4.2050  146.7070 O.2     1  VAL1       -0.2867
      5 CB        -12.4180    6.1300  146.9390 C.3     1  VAL1        0.0252
      6 CG2       -11.6270    5.3250  147.9970 C.3     1  VAL1        0.0019
      7 CG1       -11.6440    7.3940  146.4770 C.3     1  VAL1        0.0019
      8 N          -8.8360   -3.2710  146.1300 N.3     1  CYS1       -0.1221
      9 CA         -9.5720   -2.0670  146.5100 C.3     1  CYS1        0.1808
     10 C          -8.5770   -0.9480  146.8080 C.2     1  CYS1        0.2601
     11 O          -7.4020   -1.2050  147.1550 O.2     1  CYS1       -0.2717
     12 CB        -10.5250   -2.3250  147.7180 C.3     1  CYS1        0.0970
     13 SG        -11.9890   -3.3460  147.2760 S.3     1  CYS1       -0.0800
     14 N          -9.0450    0.2900  146.6960 N.am    2  ASP2       -0.1961
     15 CA         -8.2110    1.4550  146.9040 C.3     2  ASP2        0.1783
     16 C          -7.7320    1.5690  148.3290 C.2     2  ASP2        0.2619
     17 O          -6.5610    1.9270  148.5830 O.2     2  ASP2       -0.2715
     18 CB         -8.9930    2.7090  146.5290 C.3     2  ASP2        0.0728
     19 CG         -9.3650    2.7110  145.0690 C.2     2  ASP2        0.0526
     20 OD1        -8.3970    2.8030  144.2410 O.co2   2  ASP2       -0.5491
     21 OD2       -10.5620    2.5950  144.6420 O.co2   2  ASP2       -0.5491
     22 N          -8.6380    1.3070  149.2700 N.am    3  LEU3       -0.1977
     23 CA         -8.3070    1.3910  150.6840 C.3     3  LEU3        0.1596
     24 C          -8.8730    0.1970  151.3940 C.2     3  LEU3        0.2287
     25 O          -9.8090   -0.4380  150.8920 O.2     3  LEU3       -0.2864
     26 CB         -8.8190    2.6790  151.2940 C.3     3  LEU3        0.0297
     27 CG         -8.4330    3.9880  150.6010 C.3     3  LEU3        0.0022
     28 CD2        -9.3710    5.1200  150.9980 C.3     3  LEU3        0.0001
     29 CD1        -6.9560    4.3910  150.9840 C.3     3  LEU3        0.0001
     30 N           0.0910   -7.0130  142.8180 N.3     1  TYR1       -0.1241
     31 CA         -0.3160   -5.6880  143.3360 C.3     1  TYR1        0.1605
     32 C          -0.1780   -5.6030  144.8440 C.2     1  TYR1        0.2264
     33 O           0.1250   -4.5380  145.3740 O.2     1  TYR1       -0.2867
     34 CB         -1.7160   -5.2770  142.8680 C.3     1  TYR1        0.0534
     35 CG         -2.1480   -3.8800  143.2640 C.ar    1  TYR1       -0.0201
     36 CD2        -3.3070   -3.6830  144.0170 C.ar    1  TYR1       -0.0009
     37 CD1        -1.4470   -2.7610  142.8660 C.ar    1  TYR1       -0.0009
     38 CE2        -3.7370   -2.4230  144.3750 C.ar    1  TYR1        0.0417
     39 CE1        -1.8850   -1.4650  143.2260 C.ar    1  TYR1        0.0417
     40 CZ         -3.0210   -1.3300  143.9810 C.ar    1  TYR1        0.1957
     41 OH         -3.4720   -0.0780  144.3670 O.3     1  TYR1       -0.2866
     42 N          -6.9520    8.9070  141.5840 N.3     1  LYS1       -0.1245
     43 CA         -7.0750    7.4600  141.4900 C.3     1  LYS1        0.1561
     44 C          -6.3720    6.9540  140.2210 C.2     1  LYS1        0.2260
     45 O          -5.6270    5.9620  140.2490 O.2     1  LYS1       -0.2867
     46 CB         -8.5490    7.0190  141.4780 C.3     1  LYS1        0.0271
     47 CG         -8.7520    5.5450  141.1550 C.3     1  LYS1        0.0035
     48 CD         -9.8770    4.8760  141.9020 C.3     1  LYS1        0.0206
     49 CE        -10.0670    3.4800  141.3320 C.3     1  LYS1        0.1093
     50 NZ        -11.1730    2.6540  141.9740 N.3     1  LYS1       -0.1314
     51 N          -2.6240    7.2590  140.4720 N.3     1  PHE1       -0.1227
     52 CA         -2.0480    6.1650  141.2340 C.3     1  PHE1        0.1736
     53 C          -2.0220    4.8730  140.4090 C.2     1  PHE1        0.2595
     54 O          -1.0600    4.0920  140.5190 O.2     1  PHE1       -0.2718
     55 CB         -2.7880    5.9160  142.5510 C.3     1  PHE1        0.0547
     56 CG         -2.5620    6.9700  143.5930 C.ar    1  PHE1       -0.0202
     57 CD1        -3.6140    7.7600  144.0250 C.ar    1  PHE1       -0.0042
     58 CD2        -1.3150    7.1470  144.1630 C.ar    1  PHE1       -0.0042
     59 CE1        -3.4280    8.7320  145.0140 C.ar    1  PHE1       -0.0003
     60 CE2        -1.1050    8.1130  145.1410 C.ar    1  PHE1       -0.0003
     61 CZ         -2.1770    8.9120  145.5680 C.ar    1  PHE1       -0.0000
     62 N          -3.0620    4.6180  139.6120 N.am    2  ASN2       -0.1974
     63 CA         -3.0870    3.4160  138.7600 C.3     2  ASN2        0.1688
     64 C          -2.0700    3.4220  137.6040 C.2     2  ASN2        0.2292
     65 O          -1.6320    2.3620  137.1270 O.2     2  ASN2       -0.2864
     66 CB         -4.4660    3.2140  138.0860 C.3     2  ASN2        0.1181
     67 CG         -5.5760    2.7790  139.0600 C.2     2  ASN2        0.2629
     68 OD1        -5.4280    2.8300  140.2830 O.2     2  ASN2       -0.2716
     69 ND2        -6.7150    2.3450  138.4910 N.am    2  ASN2       -0.0877
@<TRIPOS>UNITY_ATOM_ATTR
20 1
charge -1
@<TRIPOS>BOND
     1     1     2    1
     2     2     3    1
     3     2     5    1
     4     3     4    2
     5     5     7    1
     6     5     6    1
     7     8     9    1
     8     9    10    1
     9     9    12    1
    10    10    14   am
    11    10    11    2
    12    12    13    1
    13    14    15    1
    14    15    18    1
    15    15    16    1
    16    16    17    2
    17    16    22   am
    18    18    19    1
    19    19    20   ar
    20    19    21   ar
    21    22    23    1
    22    23    26    1
    23    23    24    1
    24    24    25    2
    25    26    27    1
    26    27    29    1
    27    27    28    1
    28    30    31    1
    29    31    34    1
    30    31    32    1
    31    32    33    2
    32    34    35    1
    33    35    37   ar
    34    35    36   ar
    35    36    38   ar
    36    37    39   ar
    37    38    40   ar
    38    39    40   ar
    39    40    41    1
    40    42    43    1
    41    43    44    1
    42    43    46    1
    43    44    45    2
    44    46    47    1
    45    47    48    1
    46    48    49    1
    47    49    50    1
    48    51    52    1
    49    52    53    1
    50    52    55    1
    51    53    62   am
    52    53    54    2
    53    55    56    1
    54    56    57   ar
    55    56    58   ar
    56    57    59   ar
    57    58    60   ar
    58    59    61   ar
    59    60    61   ar
    60    62    63    1
    61    63    64    1
    62    63    66    1
    63    64    65    2
    64    66    67    1
    65    67    69   am
    66    67    68    2
