@<TRIPOS>MOLECULE
./1arc/protein.pdb
 116 117 0 0 0
SMALL
GASTEIGER

@<TRIPOS>ATOM
      1 N          -8.4560    0.2970   11.9600 N.3     1  HIS1       -0.1241
      2 CA         -7.0800    0.6200   11.5790 C.3     1  HIS1        0.1621
      3 C          -6.9420    1.1680   10.1680 C.2     1  HIS1        0.2264
      4 O          -5.8830    1.7160    9.8350 O.2     1  HIS1       -0.2867
      5 CB         -6.0710   -0.4960   11.8760 C.3     1  HIS1        0.0745
      6 CG         -5.9490   -1.5290   10.7910 C.ar    1  HIS1        0.0817
      7 ND1        -6.7190   -2.6540   10.7870 N.ar    1  HIS1       -0.2268
      8 CD2        -5.1660   -1.5840    9.6940 C.ar    1  HIS1        0.1154
      9 CE1        -6.3910   -3.3870    9.7350 C.ar    1  HIS1        0.1986
     10 NE2        -5.4450   -2.7790    9.0390 N.ar    1  HIS1       -0.2212
     11 N          -5.9250   -9.7540   20.2770 N.3     1  TRP1       -0.1241
     12 CA         -5.1160   -9.3020   19.1070 C.3     1  TRP1        0.1602
     13 C          -3.6760   -9.7030   19.4330 C.2     1  TRP1        0.2264
     14 O          -3.2110   -9.4420   20.5740 O.2     1  TRP1       -0.2867
     15 CB         -5.3430   -7.7950   18.9230 C.3     1  TRP1        0.0510
     16 CG         -4.3660   -7.1410   18.0070 C.2     1  TRP1       -0.0168
     17 CD1        -3.4620   -6.1710   18.3280 C.3     1  TRP1        0.1477
     18 CD2        -4.1320   -7.4650   16.6290 C.ar    1  TRP1        0.0113
     19 NE1        -2.7100   -5.8460   17.2350 N.2     1  TRP1       -0.2659
     20 CE2        -3.0900   -6.6300   16.1750 C.ar    1  TRP1        0.0758
     21 CE3        -4.7090   -8.3630   15.7370 C.ar    1  TRP1        0.0009
     22 CZ2        -2.6350   -6.6510   14.8730 C.ar    1  TRP1        0.0187
     23 CZ3        -4.2370   -8.4040   14.4270 C.ar    1  TRP1        0.0001
     24 CH2        -3.2180   -7.5540   14.0090 C.ar    1  TRP1        0.0015
     25 N          -5.1040  -14.0890    3.4430 N.3     1  THR1       -0.1203
     26 CA         -5.4810  -12.6600    3.3910 C.3     1  THR1        0.1994
     27 C          -4.1740  -11.8650    3.2900 C.2     1  THR1        0.2618
     28 O          -3.1270  -12.4120    3.7080 O.2     1  THR1       -0.2717
     29 CB         -6.3580  -12.1240    4.5680 C.3     1  THR1        0.1784
     30 OG1        -5.5010  -12.0640    5.7570 O.3     1  THR1       -0.2211
     31 CG2        -7.6500  -12.9300    4.8210 C.3     1  THR1        0.0376
     32 N          -4.2750  -10.6390    2.8080 N.am    2  GLU2       -0.1965
     33 CA         -3.0970   -9.7660    2.6520 C.3     2  GLU2        0.1716
     34 C          -3.4720   -8.3320    2.9970 C.2     2  GLU2        0.2458
     35 O          -4.6710   -8.0190    3.1380 O.2     2  GLU2       -0.2730
     36 CB         -2.6370   -9.7980    1.1850 C.3     2  GLU2        0.0369
     37 CG         -2.3460  -11.2060    0.6310 C.3     2  GLU2        0.0440
     38 CD         -1.9920  -11.3050   -0.8200 C.2     2  GLU2        0.0504
     39 OE1        -1.9140  -10.3260   -1.5430 O.co2   2  GLU2       -0.5492
     40 OE2        -1.7740  -12.4820   -1.2290 O.co2   2  GLU2       -0.5492
     41 N          -2.4460   -7.5160    3.1860 N.am    3  PRO3       -0.2716
     42 CA         -2.6740   -6.0720    3.4830 C.3     3  PRO3        0.1536
     43 C          -3.6850   -5.6160    2.4270 C.2     3  PRO3        0.2599
     44 O          -3.4660   -5.9370    1.2490 O.2     3  PRO3       -0.2715
     45 CB         -1.3040   -5.4340    3.2060 C.3     3  PRO3        0.0310
     46 CG         -0.3190   -6.5690    3.4990 C.3     3  PRO3        0.0237
     47 CD         -1.0220   -7.8540    3.0730 C.3     3  PRO3        0.0939
     48 N          -4.6870   -4.8710    2.8400 N.am    4  GLY4       -0.1941
     49 CA         -5.7330   -4.4000    1.8880 C.3     4  GLY4        0.2014
     50 C          -6.9890   -5.2300    2.1410 C.2     4  GLY4        0.2640
     51 O          -8.1140   -4.7630    1.9690 O.2     4  GLY4       -0.2714
     52 N          -6.7790   -6.4660    2.5950 N.am    5  SER5       -0.1935
     53 CA         -7.9010   -7.3440    2.9690 C.3     5  SER5        0.2055
     54 C          -8.5180   -6.8550    4.2830 C.2     5  SER5        0.2643
     55 O          -9.6270   -7.2650    4.6520 O.2     5  SER5       -0.2714
     56 CB         -7.4670   -8.8050    3.2100 C.3     5  SER5        0.2130
     57 OG         -7.0540   -9.4370    2.0090 O.3     5  SER5       -0.2179
     58 N          -7.7920   -6.0580    5.0580 N.am    6  SER6       -0.1949
     59 CA         -8.3950   -5.6500    6.3400 C.3     6  SER6        0.1924
     60 CB         -9.7710   -5.0250    6.1670 C.2     6  SER6        0.2314
     61 OG        -10.0330   -4.2700    5.2390 O.2     6  SER6       -0.2863
     62 C          -7.5480   -4.6620    7.1150 C.3     6  SER6        0.2116
     63 O          -6.4540   -5.4890    7.5850 O.3     6  SER6       -0.2180
     64 N         -11.7140   -8.5360    9.3650 N.3     1  LEU1       -0.1231
     65 CA        -10.2850   -8.7040    9.4610 C.3     1  LEU1        0.1693
     66 C          -9.4910   -7.5790   10.1120 C.2     1  LEU1        0.2592
     67 O          -9.4150   -6.4650    9.5980 O.2     1  LEU1       -0.2718
     68 CB         -9.6930   -9.0540    8.0710 C.3     1  LEU1        0.0284
     69 CG         -8.1820   -9.3530    8.1150 C.3     1  LEU1        0.0019
     70 CD2        -7.9490  -10.6630    8.8230 C.3     1  LEU1        0.0001
     71 CD1        -7.6290   -9.4090    6.6930 C.3     1  LEU1        0.0001
     72 N          -8.8120   -7.9810   11.1810 N.am    2  HIS2       -0.1962
     73 CA         -7.9220   -7.0440   11.9120 C.3     2  HIS2        0.1787
     74 C          -6.5350   -7.2050   11.2770 C.2     2  HIS2        0.2621
     75 O          -5.9050   -6.2260   10.8470 O.2     2  HIS2       -0.2715
     76 CB         -7.8780   -7.3410   13.4110 C.3     2  HIS2        0.0785
     77 CG         -7.1720   -6.2860   14.2220 C.ar    2  HIS2        0.0821
     78 ND1        -7.4210   -6.0960   15.5600 N.ar    2  HIS2       -0.2267
     79 CD2        -6.2320   -5.4030   13.8520 C.ar    2  HIS2        0.1154
     80 CE1        -6.6390   -5.1070   16.0060 C.ar    2  HIS2        0.1986
     81 NE2        -5.9100   -4.6860   14.9730 N.ar    2  HIS2       -0.2212
     82 N          -6.1230   -8.4810   11.2370 N.am    3  GLY3       -0.1940
     83 CA         -4.8090   -8.8180   10.6140 C.3     3  GLY3        0.2014
     84 C          -4.3420  -10.1830   11.1290 C.2     3  GLY3        0.2639
     85 O          -5.0950  -10.9480   11.7510 O.2     3  GLY3       -0.2714
     86 N          -3.0600  -10.4540   10.8710 N.am    4  GLY4       -0.1940
     87 CA         -2.4940  -11.7470   11.3170 C.3     4  GLY4        0.1999
     88 C          -1.2450  -12.0400   10.4860 C.2     4  GLY4        0.2481
     89 O          -0.8550  -11.2540    9.6020 O.2     4  GLY4       -0.2729
     90 N          -0.6360  -13.1750   10.8390 N.am    5  PRO5       -0.2715
     91 CA          0.6110  -13.5790   10.2050 C.3     5  PRO5        0.1536
     92 C           0.5190  -14.1380    8.8190 C.2     5  PRO5        0.2599
     93 O           1.5580  -14.1450    8.1520 O.2     5  PRO5       -0.2715
     94 CB          1.1730  -14.6080   11.2090 C.3     5  PRO5        0.0310
     95 CG         -0.0880  -15.2950   11.7470 C.3     5  PRO5        0.0237
     96 CD         -1.0720  -14.1130   11.8880 C.3     5  PRO5        0.0939
     97 N          -0.6410  -14.5610    8.3200 N.am    6  SER6       -0.1936
     98 CA         -0.6890  -15.2070    7.0030 C.3     6  SER6        0.2055
     99 C          -0.1690  -14.4230    5.8130 C.2     6  SER6        0.2643
    100 O          -0.2180  -13.2130    5.6930 O.2     6  SER6       -0.2714
    101 CB         -2.1060  -15.7090    6.6930 C.3     6  SER6        0.2130
    102 OG         -2.9150  -14.7030    6.1270 O.3     6  SER6       -0.2179
    103 N           0.2360  -15.1950    4.8290 N.am    7  SER7       -0.1949
    104 CA          0.7230  -14.8960    3.4910 C.3     7  SER7        0.1924
    105 CB          0.6770  -16.2590    2.7520 C.2     7  SER7        0.2314
    106 OG          0.5260  -17.2840    3.4190 O.2     7  SER7       -0.2863
    107 C           2.0950  -14.3040    3.3910 C.3     7  SER7        0.2116
    108 O           3.0790  -15.2710    3.7000 O.3     7  SER7       -0.2180
    109 N          -5.3130  -15.8790   10.6060 N.3     1  ASP1       -0.1241
    110 CA         -5.6240  -14.4310   10.7830 C.3     1  ASP1        0.1616
    111 C          -6.5920  -14.2600   11.9560 C.2     1  ASP1        0.2264
    112 O          -7.2480  -15.2110   12.4020 O.2     1  ASP1       -0.2867
    113 CB         -6.1620  -13.8060    9.4970 C.3     1  ASP1        0.0687
    114 CG         -5.0700  -13.5580    8.4850 C.2     1  ASP1        0.0522
    115 OD2        -4.2200  -12.7090    8.7860 O.co2   1  ASP1       -0.5491
    116 OD1        -5.0780  -14.1480    7.3920 O.co2   1  ASP1       -0.5491
@<TRIPOS>UNITY_ATOM_ATTR
39 1
charge -1
115 1
charge -1
@<TRIPOS>BOND
     1     1     2    1
     2     2     3    1
     3     2     5    1
     4     3     4    2
     5     5     6    1
     6     6     8   ar
     7     6     7   ar
     8     7     9   ar
     9     8    10   ar
    10     9    10   ar
    11    11    12    1
    12    12    15    1
    13    12    13    1
    14    13    14    2
    15    15    16    1
    16    16    18    2
    17    16    17    1
    18    17    19    1
    19    18    21   ar
    20    18    20   ar
    21    19    20    2
    22    20    22   ar
    23    21    23   ar
    24    22    24   ar
    25    23    24   ar
    26    25    26    1
    27    26    27    1
    28    26    29    1
    29    27    32   am
    30    27    28    2
    31    29    31    1
    32    29    30    1
    33    32    33    1
    34    33    36    1
    35    33    34    1
    36    34    35    2
    37    34    41   am
    38    36    37    1
    39    37    38    1
    40    38    39   ar
    41    38    40   ar
    42    41    47    1
    43    41    42    1
    44    42    43    1
    45    42    45    1
    46    43    44    2
    47    43    48   am
    48    45    46    1
    49    46    47    1
    50    48    49    1
    51    49    50    1
    52    50    51    2
    53    50    52   am
    54    52    53    1
    55    53    56    1
    56    53    54    1
    57    54    55    2
    58    54    58   am
    59    56    57    1
    60    58    59    1
    61    59    60    1
    62    59    62    1
    63    60    61    2
    64    62    63    1
    65    64    65    1
    66    65    68    1
    67    65    66    1
    68    66    67    2
    69    66    72   am
    70    68    69    1
    71    69    71    1
    72    69    70    1
    73    72    73    1
    74    73    74    1
    75    73    76    1
    76    74    75    2
    77    74    82   am
    78    76    77    1
    79    77    79   ar
    80    77    78   ar
    81    78    80   ar
    82    79    81   ar
    83    80    81   ar
    84    82    83    1
    85    83    84    1
    86    84    86   am
    87    84    85    2
    88    86    87    1
    89    87    88    1
    90    88    89    2
    91    88    90   am
    92    90    91    1
    93    90    96    1
    94    91    92    1
    95    91    94    1
    96    92    93    2
    97    92    97   am
    98    94    95    1
    99    95    96    1
   100    97    98    1
   101    98    99    1
   102    98   101    1
   103    99   103   am
   104    99   100    2
   105   101   102    1
   106   103   104    1
   107   104   105    1
   108   104   107    1
   109   105   106    2
   110   107   108    1
   111   109   110    1
   112   110   113    1
   113   110   111    1
   114   111   112    2
   115   113   114    1
   116   114   116   ar
   117   114   115   ar
