@<TRIPOS>MOLECULE
./2hxm/protein.pdb
 220 223 0 0 0
SMALL
GASTEIGER

@<TRIPOS>ATOM
      1 N           3.8740    8.2550   -7.8830 N.3     1  LEU1       -0.1231
      2 CA          5.2870    7.9000   -7.9620 C.3     1  LEU1        0.1693
      3 C           5.6750    6.9490   -6.8550 C.2     1  LEU1        0.2593
      4 O           5.4460    7.2340   -5.6730 O.2     1  LEU1       -0.2718
      5 CB          6.1570    9.1500   -7.8830 C.3     1  LEU1        0.0284
      6 CG          5.9760   10.1480   -9.0190 C.3     1  LEU1        0.0019
      7 CD2         6.9100   11.3430   -8.8290 C.3     1  LEU1        0.0001
      8 CD1         6.2270    9.5170  -10.3850 C.3     1  LEU1        0.0001
      9 N           6.2840    5.8360   -7.2440 N.am    2  GLY2       -0.1942
     10 CA          6.8370    4.8760   -6.2970 C.3     2  GLY2        0.2014
     11 C           8.3490    4.8320   -6.3590 C.2     2  GLY2        0.2639
     12 O           9.0050    5.6350   -7.0390 O.2     2  GLY2       -0.2714
     13 N           8.8980    3.8760   -5.6300 N.am    3  GLN3       -0.1963
     14 CA         10.3380    3.7430   -5.4840 C.3     3  GLN3        0.1733
     15 C          10.8290    2.4500   -6.1380 C.2     3  GLN3        0.2616
     16 O          11.2300    2.4650   -7.2960 O.2     3  GLN3       -0.2715
     17 CB         10.7320    3.8290   -4.0040 C.3     3  GLN3        0.0408
     18 CG         12.2260    3.9090   -3.7610 C.3     3  GLN3        0.0908
     19 CD         12.6020    4.3020   -2.3480 C.2     3  GLN3        0.2608
     20 OE1        11.7570    4.5930   -1.4970 O.2     3  GLN3       -0.2717
     21 NE2        13.8980    4.3110   -2.0940 N.am    3  GLN3       -0.0878
     22 N          10.7540    1.3430   -5.3980 N.am    4  ASP4       -0.1960
     23 CA         11.2860    0.0380   -5.7880 C.3     4  ASP4        0.1768
     24 C          10.1220   -0.9090   -6.1240 C.2     4  ASP4        0.2462
     25 O           9.0810   -0.8540   -5.4830 O.2     4  ASP4       -0.2730
     26 CB         12.0710   -0.5400   -4.5920 C.3     4  ASP4        0.0727
     27 CG         13.2860   -1.3600   -5.0030 C.2     4  ASP4        0.0526
     28 OD1        14.0180   -0.9460   -5.9210 O.co2   4  ASP4       -0.5491
     29 OD2        13.5270   -2.4140   -4.3720 O.co2   4  ASP4       -0.5491
     30 N          10.2840   -1.8060   -7.1110 N.am    5  PRO5       -0.2716
     31 CA          9.2420   -2.8230   -7.3150 C.3     5  PRO5        0.1536
     32 C           9.1920   -3.8150   -6.1580 C.2     5  PRO5        0.2599
     33 O          10.1730   -3.9910   -5.4480 O.2     5  PRO5       -0.2715
     34 CB          9.7050   -3.5650   -8.5750 C.3     5  PRO5        0.0310
     35 CG         10.7320   -2.6630   -9.2040 C.3     5  PRO5        0.0237
     36 CD         11.3960   -1.9850   -8.0600 C.3     5  PRO5        0.0939
     37 N           8.0540   -4.4720   -5.9710 N.am    6  TYR6       -0.1960
     38 CA          8.0070   -5.5890   -5.0340 C.3     6  TYR6        0.1771
     39 C           9.0710   -6.6150   -5.4090 C.2     6  TYR6        0.2620
     40 O           9.3090   -6.8650   -6.5890 O.2     6  TYR6       -0.2715
     41 CB          6.6580   -6.2860   -5.0950 C.3     6  TYR6        0.0574
     42 CG          5.4860   -5.5160   -4.5790 C.ar    6  TYR6       -0.0198
     43 CD2         5.3940   -5.1620   -3.2390 C.ar    6  TYR6       -0.0009
     44 CD1         4.4380   -5.1670   -5.4220 C.ar    6  TYR6       -0.0009
     45 CE2         4.2940   -4.4590   -2.7520 C.ar    6  TYR6        0.0417
     46 CE1         3.3230   -4.4740   -4.9380 C.ar    6  TYR6        0.0417
     47 CZ          3.2590   -4.1260   -3.6020 C.ar    6  TYR6        0.1957
     48 OH          2.1620   -3.4450   -3.0990 O.3     6  TYR6       -0.2866
     49 N           9.6910   -7.2180   -4.3970 N.am    7  HIS7       -0.1959
     50 CA         10.7980   -8.1420   -4.6310 C.3     7  HIS7        0.1784
     51 C          10.4640   -9.6020   -4.3320 C.2     7  HIS7        0.2620
     52 O          11.3420  -10.4570   -4.4070 O.2     7  HIS7       -0.2715
     53 CB         12.0450   -7.6880   -3.8490 C.3     7  HIS7        0.0745
     54 CG         11.8060   -7.5500   -2.3800 C.2     7  HIS7        0.0653
     55 ND1        11.7700   -6.3300   -1.7400 N.2     7  HIS7       -0.2310
     56 CD2        11.5660   -8.4830   -1.4270 C.3     7  HIS7        0.1683
     57 CE1        11.5180   -6.5160   -0.4550 C.2     7  HIS7        0.1939
     58 NE2        11.3900   -7.8130   -0.2400 N.2     7  HIS7       -0.2440
     59 N           9.2060   -9.8990   -4.0160 N.am    8  GLY8       -0.1954
     60 CA          8.7750  -11.2850   -3.7790 C.3     8  GLY8        0.1869
     61 C           8.2500  -11.9450   -5.0410 C.2     8  GLY8        0.2309
     62 O           7.8130  -11.2710   -5.9700 O.2     8  GLY8       -0.2863
     63 N           4.9120  -10.9240   -7.5070 N.3     1  GLN1       -0.1245
     64 CA          4.3340   -9.6610   -7.0570 C.3     1  GLN1        0.1566
     65 C           4.4460   -8.5350   -8.0800 C.2     1  GLN1        0.2260
     66 O           3.4350   -8.0960   -8.6120 O.2     1  GLN1       -0.2867
     67 CB          4.9410   -9.2380   -5.7310 C.3     1  GLN1        0.0367
     68 CG          4.6300  -10.1650   -4.5780 C.3     1  GLN1        0.0905
     69 CD          5.2160   -9.6390   -3.2980 C.2     1  GLN1        0.2608
     70 OE1         6.3830   -9.2830   -3.2590 O.2     1  GLN1       -0.2717
     71 NE2         4.4090   -9.5690   -2.2430 N.am    1  GLN1       -0.0878
     72 N           3.3570    0.4260  -10.0260 N.3     1  CYS1       -0.1221
     73 CA          3.6670    0.5880   -8.6160 C.3     1  CYS1        0.1808
     74 C           2.5000    0.1830   -7.7190 C.2     1  CYS1        0.2601
     75 O           1.3350    0.4930   -8.0170 O.2     1  CYS1       -0.2717
     76 CB          4.1600    2.0000   -8.3050 C.3     1  CYS1        0.0970
     77 SG          2.9400    3.2900   -8.4140 S.3     1  CYS1       -0.0800
     78 N           2.8390   -0.5560   -6.6570 N.am    2  PHE2       -0.1962
     79 CA          1.9220   -1.0350   -5.6040 C.3     2  PHE2        0.1771
     80 C           0.9970   -2.1780   -5.9920 C.2     2  PHE2        0.2620
     81 O           0.4260   -2.8100   -5.1150 O.2     2  PHE2       -0.2715
     82 CB          1.1040    0.1110   -4.9860 C.3     2  PHE2        0.0574
     83 CG          1.9380    1.1250   -4.2740 C.ar    2  PHE2       -0.0200
     84 CD1         2.1150    2.3870   -4.8140 C.ar    2  PHE2       -0.0042
     85 CD2         2.5540    0.8200   -3.0660 C.ar    2  PHE2       -0.0042
     86 CE1         2.8870    3.3430   -4.1530 C.ar    2  PHE2       -0.0003
     87 CE2         3.3210    1.7750   -2.4030 C.ar    2  PHE2       -0.0003
     88 CZ          3.4970    3.0250   -2.9530 C.ar    2  PHE2       -0.0000
     89 N           0.8850   -2.4610   -7.2890 N.am    3  SER3       -0.1950
     90 CA         -0.0460   -3.4600   -7.8120 C.3     3  SER3        0.1924
     91 C           0.5100   -4.8810   -7.7660 C.2     3  SER3        0.2314
     92 O           1.7210   -5.0960   -7.9040 O.2     3  SER3       -0.2863
     93 CB         -0.3510   -3.0810   -9.2530 C.3     3  SER3        0.2116
     94 OG         -1.2910   -3.9370   -9.8690 O.3     3  SER3       -0.2180
     95 N          -0.2260   -6.7880   -0.7960 N.3     1  PRO1       -0.2103
     96 CA          0.7210   -6.5710    0.3030 C.3     1  PRO1        0.1489
     97 C           0.2270   -5.4830    1.2670 C.2     1  PRO1        0.2418
     98 O          -0.7140   -4.7430    0.9550 O.2     1  PRO1       -0.2734
     99 CB          2.0090   -6.1590   -0.4260 C.3     1  PRO1        0.0282
    100 CG          1.8530   -6.7900   -1.7860 C.3     1  PRO1        0.0208
    101 CD          0.4180   -6.5320   -2.0990 C.3     1  PRO1        0.0893
    102 N           0.8300   -5.3950    2.4610 N.am    2  PRO2       -0.2718
    103 CA          0.3290   -4.4240    3.4440 C.3     2  PRO2        0.1535
    104 C           0.1910   -2.9780    2.9510 C.2     2  PRO2        0.2599
    105 O          -0.7920   -2.3150    3.2780 O.2     2  PRO2       -0.2715
    106 CB          1.3260   -4.5720    4.6050 C.3     2  PRO2        0.0310
    107 CG          1.7400   -6.0280    4.5110 C.3     2  PRO2        0.0237
    108 CD          1.9140   -6.2270    3.0240 C.3     2  PRO2        0.0939
    109 N           1.1340   -2.4920    2.1500 N.am    3  SER3       -0.1936
    110 CA          1.0080   -1.1310    1.6330 C.3     3  SER3        0.2055
    111 C          -0.2440   -0.9470    0.7820 C.2     3  SER3        0.2642
    112 O          -0.9160    0.0830    0.8690 O.2     3  SER3       -0.2714
    113 CB          2.2460   -0.7400    0.8350 C.3     3  SER3        0.2130
    114 OG          3.4070   -0.6840    1.6610 O.3     3  SER3       -0.2179
    115 N          -0.5300   -1.9430   -0.0520 N.am    4  LEU4       -0.1977
    116 CA         -1.7300   -1.8980   -0.8720 C.3     4  LEU4        0.1596
    117 C          -3.0080   -2.0410   -0.0300 C.2     4  LEU4        0.2287
    118 O          -3.9850   -1.3320   -0.2560 O.2     4  LEU4       -0.2864
    119 CB         -1.6650   -2.9270   -1.9940 C.3     4  LEU4        0.0297
    120 CG         -2.8440   -2.8720   -2.9650 C.3     4  LEU4        0.0022
    121 CD2        -3.0120   -1.4970   -3.5800 C.3     4  LEU4        0.0001
    122 CD1        -2.6120   -3.9000   -4.0430 C.3     4  LEU4        0.0001
    123 N           7.0540    3.4200  -10.7720 N.3     1  ASN1       -0.1240
    124 CA          8.1970    3.2950   -9.8710 C.3     1  ASN1        0.1653
    125 C           9.4220    4.0180  -10.4160 C.2     1  ASN1        0.2266
    126 O           9.6060    4.1080  -11.6170 O.2     1  ASN1       -0.2867
    127 CB          8.5470    1.8310   -9.6640 C.3     1  ASN1        0.1155
    128 CG          7.6720    1.1640   -8.6320 C.2     1  ASN1        0.2627
    129 OD1         7.3120    1.7710   -7.6130 O.2     1  ASN1       -0.2716
    130 ND2         7.3460   -0.1010   -8.8690 N.am    1  ASN1       -0.0877
    131 N          15.6020   -5.9790   -1.6600 N.3     1  ALA1       -0.1231
    132 CA         15.0800   -4.6330   -1.8490 C.3     1  ALA1        0.1694
    133 C          16.2010   -3.6820   -2.2190 C.2     1  ALA1        0.2592
    134 O          17.2950   -3.7470   -1.6530 O.2     1  ALA1       -0.2718
    135 CB         14.3780   -4.1460   -0.5930 C.3     1  ALA1        0.0304
    136 N          15.9220   -2.8140   -3.1890 N.am    2  ASN2       -0.1974
    137 CA         16.8340   -1.7380   -3.5940 C.3     2  ASN2        0.1688
    138 C          18.1330   -2.2220   -4.2410 C.2     2  ASN2        0.2292
    139 O          19.0870   -1.4550   -4.3840 O.2     2  ASN2       -0.2864
    140 CB         17.1340   -0.8000   -2.4170 C.3     2  ASN2        0.1181
    141 CG         15.8720   -0.2740   -1.7530 C.2     2  ASN2        0.2629
    142 OD1        14.9890    0.2790   -2.4110 O.2     2  ASN2       -0.2716
    143 ND2        15.7870   -0.4430   -0.4350 N.am    2  ASN2       -0.0877
    144 N           3.6590   10.3000   -2.2340 N.3     1  TRP1       -0.1227
    145 CA          3.4850    9.6310   -0.9570 C.3     1  TRP1        0.1734
    146 C           4.8370    9.2630   -0.4050 C.2     1  TRP1        0.2596
    147 O           5.5090    8.3920   -0.9550 O.2     1  TRP1       -0.2718
    148 CB          2.6490    8.3750   -1.1610 C.3     1  TRP1        0.0524
    149 CG          1.2540    8.6170   -1.6920 C.2     1  TRP1       -0.0167
    150 CD1         0.5400    9.7880   -1.6730 C.3     1  TRP1        0.1477
    151 CD2         0.3990    7.6390   -2.2780 C.ar    1  TRP1        0.0113
    152 NE1        -0.7000    9.5920   -2.2260 N.2     1  TRP1       -0.2659
    153 CE2        -0.8190    8.2760   -2.5940 C.ar    1  TRP1        0.0758
    154 CE3         0.5520    6.2800   -2.5800 C.ar    1  TRP1        0.0009
    155 CZ2        -1.8850    7.5940   -3.1910 C.ar    1  TRP1        0.0187
    156 CZ3        -0.5100    5.6010   -3.1570 C.ar    1  TRP1        0.0001
    157 CH2        -1.7080    6.2580   -3.4620 C.ar    1  TRP1        0.0015
    158 N           5.2380    9.9530    0.6600 N.am    2  GLY2       -0.1942
    159 CA          6.5460    9.7660    1.2710 C.3     2  GLY2        0.2014
    160 C           7.6060   10.7280    0.7620 C.2     2  GLY2        0.2640
    161 O           7.4490   11.3730   -0.2850 O.2     2  GLY2       -0.2714
    162 N           8.7120   10.8050    1.5010 N.am    3  SER3       -0.1935
    163 CA          9.7770   11.7630    1.2100 C.3     3  SER3        0.2055
    164 C          10.4810   11.4870   -0.1260 C.2     3  SER3        0.2643
    165 O          10.8640   12.4190   -0.8410 O.2     3  SER3       -0.2714
    166 CB         10.7960   11.7930    2.3550 C.3     3  SER3        0.2130
    167 OG         11.5360   10.5970    2.4200 O.3     3  SER3       -0.2179
    168 N          10.6440   10.2140   -0.4710 N.am    4  TYR4       -0.1959
    169 CA         11.3240    9.8630   -1.7100 C.3     4  TYR4        0.1771
    170 C          10.5230   10.3470   -2.9270 C.2     4  TYR4        0.2619
    171 O          11.0660   10.9560   -3.8450 O.2     4  TYR4       -0.2715
    172 CB         11.5470    8.3520   -1.7810 C.3     4  TYR4        0.0574
    173 CG         12.2880    7.9080   -3.0230 C.ar    4  TYR4       -0.0198
    174 CD2        13.6760    7.7640   -3.0170 C.ar    4  TYR4       -0.0009
    175 CD1        11.6010    7.6640   -4.2160 C.ar    4  TYR4       -0.0009
    176 CE2        14.3590    7.3570   -4.1630 C.ar    4  TYR4        0.0417
    177 CE1        12.2650    7.2760   -5.3580 C.ar    4  TYR4        0.0417
    178 CZ         13.6440    7.1250   -5.3280 C.ar    4  TYR4        0.1957
    179 OH         14.2780    6.7270   -6.4810 O.3     4  TYR4       -0.2866
    180 N           9.2220   10.0830   -2.9130 N.am    5  ALA5       -0.1977
    181 CA          8.3350   10.5260   -3.9930 C.3     5  ALA5        0.1597
    182 C           8.2470   12.0390   -4.0490 C.2     5  ALA5        0.2287
    183 O           8.2000   12.6370   -5.1290 O.2     5  ALA5       -0.2864
    184 CB          6.9600    9.9270   -3.8370 C.3     5  ALA5        0.0319
    185 N           4.0590    7.9880    3.2750 N.3     1  HIS1       -0.1227
    186 CA          4.0240    6.7410    2.5410 C.3     1  HIS1        0.1737
    187 C           3.0270    5.7550    3.1640 C.2     1  HIS1        0.2438
    188 O           2.8660    5.7380    4.3810 O.2     1  HIS1       -0.2733
    189 CB          5.4210    6.1610    2.5710 C.3     1  HIS1        0.0758
    190 CG          5.6330    5.0500    1.6040 C.ar    1  HIS1        0.0818
    191 ND1         5.2480    3.7540    1.8680 N.ar    1  HIS1       -0.2268
    192 CD2         6.1910    5.0390    0.3730 C.ar    1  HIS1        0.1154
    193 CE1         5.5680    2.9900    0.8410 C.ar    1  HIS1        0.1986
    194 NE2         6.1310    3.7480   -0.0850 N.ar    1  HIS1       -0.2212
    195 N           2.3120    4.9600    2.3380 N.am    2  PRO2       -0.2718
    196 CA          1.3300    4.0090    2.8740 C.3     2  PRO2        0.1535
    197 C           1.8820    2.7280    3.5290 C.2     2  PRO2        0.2599
    198 O           1.0950    1.9080    3.9830 O.2     2  PRO2       -0.2715
    199 CB          0.4670    3.6730    1.6480 C.3     2  PRO2        0.0310
    200 CG          1.3950    3.8140    0.5010 C.3     2  PRO2        0.0237
    201 CD          2.2860    4.9820    0.8620 C.3     2  PRO2        0.0939
    202 N           3.2010    2.5720    3.6130 N.am    3  SER3       -0.1937
    203 CA          3.7850    1.3930    4.2700 C.3     3  SER3        0.2040
    204 C           3.3300    1.3260    5.7300 C.2     3  SER3        0.2485
    205 O           3.0630    2.3530    6.3410 O.2     3  SER3       -0.2729
    206 CB          5.3140    1.4380    4.2110 C.3     3  SER3        0.2129
    207 OG          5.8150    2.2590    5.2570 O.3     3  SER3       -0.2179
    208 N           3.2470    0.1130    6.3020 N.am    4  PRO4       -0.2726
    209 CA          2.8240    0.0070    7.7060 C.3     4  PRO4        0.1402
    210 C           3.5990    0.8810    8.6930 C.2     4  PRO4        0.2269
    211 O           3.0200    1.3920    9.6410 O.2     4  PRO4       -0.2865
    212 CB          3.0430   -1.4730    8.0210 C.3     4  PRO4        0.0296
    213 CG          2.8460   -2.1390    6.7090 C.3     4  PRO4        0.0237
    214 CD          3.4610   -1.2120    5.6890 C.3     4  PRO4        0.0939
    215 N           4.8430    3.8300    8.2550 N.3     1  SER1       -0.1217
    216 CA          4.6670    5.2600    8.0040 C.3     1  SER1        0.1889
    217 C           3.2200    5.7030    7.8150 C.2     1  SER1        0.2288
    218 O           2.9430    6.9020    7.8530 O.2     1  SER1       -0.2866
    219 CB          5.4760    5.6820    6.7740 C.3     1  SER1        0.2089
    220 OG          5.0670    4.9430    5.6440 O.3     1  SER1       -0.2183
@<TRIPOS>UNITY_ATOM_ATTR
28 1
charge -1
@<TRIPOS>BOND
     1     1     2    1
     2     2     5    1
     3     2     3    1
     4     3     9   am
     5     3     4    2
     6     5     6    1
     7     6     8    1
     8     6     7    1
     9     9    10    1
    10    10    11    1
    11    11    12    2
    12    11    13   am
    13    13    14    1
    14    14    15    1
    15    14    17    1
    16    15    16    2
    17    15    22   am
    18    17    18    1
    19    18    19    1
    20    19    21   am
    21    19    20    2
    22    22    23    1
    23    23    24    1
    24    23    26    1
    25    24    30   am
    26    24    25    2
    27    26    27    1
    28    27    28   ar
    29    27    29   ar
    30    30    36    1
    31    30    31    1
    32    31    34    1
    33    31    32    1
    34    32    37   am
    35    32    33    2
    36    34    35    1
    37    35    36    1
    38    37    38    1
    39    38    39    1
    40    38    41    1
    41    39    40    2
    42    39    49   am
    43    41    42    1
    44    42    44   ar
    45    42    43   ar
    46    43    45   ar
    47    44    46   ar
    48    45    47   ar
    49    46    47   ar
    50    47    48    1
    51    49    50    1
    52    50    51    1
    53    50    53    1
    54    51    52    2
    55    51    59   am
    56    53    54    1
    57    54    55    2
    58    54    56    1
    59    55    57    1
    60    56    58    1
    61    57    58    2
    62    59    60    1
    63    60    61    1
    64    61    62    2
    65    63    64    1
    66    64    65    1
    67    64    67    1
    68    65    66    2
    69    67    68    1
    70    68    69    1
    71    69    70    2
    72    69    71   am
    73    72    73    1
    74    73    76    1
    75    73    74    1
    76    74    75    2
    77    74    78   am
    78    76    77    1
    79    78    79    1
    80    79    80    1
    81    79    82    1
    82    80    89   am
    83    80    81    2
    84    82    83    1
    85    83    84   ar
    86    83    85   ar
    87    84    86   ar
    88    85    87   ar
    89    86    88   ar
    90    87    88   ar
    91    89    90    1
    92    90    93    1
    93    90    91    1
    94    91    92    2
    95    93    94    1
    96    95   101    1
    97    95    96    1
    98    96    99    1
    99    96    97    1
   100    97    98    2
   101    97   102   am
   102    99   100    1
   103   100   101    1
   104   102   108    1
   105   102   103    1
   106   103   104    1
   107   103   106    1
   108   104   109   am
   109   104   105    2
   110   106   107    1
   111   107   108    1
   112   109   110    1
   113   110   111    1
   114   110   113    1
   115   111   115   am
   116   111   112    2
   117   113   114    1
   118   115   116    1
   119   116   119    1
   120   116   117    1
   121   117   118    2
   122   119   120    1
   123   120   122    1
   124   120   121    1
   125   123   124    1
   126   124   125    1
   127   124   127    1
   128   125   126    2
   129   127   128    1
   130   128   130   am
   131   128   129    2
   132   131   132    1
   133   132   133    1
   134   132   135    1
   135   133   136   am
   136   133   134    2
   137   136   137    1
   138   137   138    1
   139   137   140    1
   140   138   139    2
   141   140   141    1
   142   141   142    2
   143   141   143   am
   144   144   145    1
   145   145   148    1
   146   145   146    1
   147   146   147    2
   148   146   158   am
   149   148   149    1
   150   149   151    2
   151   149   150    1
   152   150   152    1
   153   151   153   ar
   154   151   154   ar
   155   152   153    2
   156   153   155   ar
   157   154   156   ar
   158   155   157   ar
   159   156   157   ar
   160   158   159    1
   161   159   160    1
   162   160   161    2
   163   160   162   am
   164   162   163    1
   165   163   164    1
   166   163   166    1
   167   164   165    2
   168   164   168   am
   169   166   167    1
   170   168   169    1
   171   169   170    1
   172   169   172    1
   173   170   171    2
   174   170   180   am
   175   172   173    1
   176   173   175   ar
   177   173   174   ar
   178   174   176   ar
   179   175   177   ar
   180   176   178   ar
   181   177   178   ar
   182   178   179    1
   183   180   181    1
   184   181   182    1
   185   181   184    1
   186   182   183    2
   187   185   186    1
   188   186   189    1
   189   186   187    1
   190   187   195   am
   191   187   188    2
   192   189   190    1
   193   190   192   ar
   194   190   191   ar
   195   191   193   ar
   196   192   194   ar
   197   193   194   ar
   198   195   201    1
   199   195   196    1
   200   196   199    1
   201   196   197    1
   202   197   202   am
   203   197   198    2
   204   199   200    1
   205   200   201    1
   206   202   203    1
   207   203   206    1
   208   203   204    1
   209   204   208   am
   210   204   205    2
   211   206   207    1
   212   208   214    1
   213   208   209    1
   214   209   212    1
   215   209   210    1
   216   210   211    2
   217   212   213    1
   218   213   214    1
   219   215   216    1
   220   216   219    1
   221   216   217    1
   222   217   218    2
   223   219   220    1
