@<TRIPOS>MOLECULE
./1s3f/protein.pdb
 282 284 0 0 0
SMALL
GASTEIGER

@<TRIPOS>ATOM
      1 N         -10.2580   -0.5980  -16.8490 N.3     1  TYR1       -0.1227
      2 CA         -8.9800   -1.0850  -17.3130 C.3     1  TYR1        0.1736
      3 C          -9.3950   -2.3200  -18.0970 C.2     1  TYR1        0.2595
      4 O          -9.7620   -3.3370  -17.5120 O.2     1  TYR1       -0.2718
      5 CB         -8.0660   -1.5200  -16.1760 C.3     1  TYR1        0.0548
      6 CG         -6.7530   -2.0270  -16.7140 C.ar    1  TYR1       -0.0200
      7 CD1        -5.7640   -1.1360  -17.1310 C.ar    1  TYR1       -0.0009
      8 CD2        -6.5190   -3.3920  -16.8620 C.ar    1  TYR1       -0.0009
      9 CE1        -4.5760   -1.5920  -17.6810 C.ar    1  TYR1        0.0417
     10 CE2        -5.3310   -3.8630  -17.4140 C.ar    1  TYR1        0.0417
     11 CZ         -4.3660   -2.9550  -17.8190 C.ar    1  TYR1        0.1957
     12 OH         -3.1790   -3.3990  -18.3400 O.3     1  TYR1       -0.2866
     13 N          -9.3590   -2.2260  -19.4190 N.am    2  LEU2       -0.1966
     14 CA         -9.7520   -3.3490  -20.2560 C.3     2  LEU2        0.1728
     15 C          -8.5440   -4.2280  -20.5580 C.2     2  LEU2        0.2617
     16 O          -7.7050   -3.8860  -21.3950 O.2     2  LEU2       -0.2715
     17 CB        -10.3790   -2.8250  -21.5480 C.3     2  LEU2        0.0311
     18 CG        -10.9850   -3.8480  -22.5130 C.3     2  LEU2        0.0022
     19 CD2       -12.0060   -4.7080  -21.7860 C.3     2  LEU2        0.0001
     20 CD1       -11.6380   -3.1100  -23.6790 C.3     2  LEU2        0.0001
     21 N          -8.4540   -5.3540  -19.8550 N.am    3  GLY3       -0.1940
     22 CA         -7.3510   -6.2760  -20.0520 C.3     3  GLY3        0.2014
     23 C          -7.7230   -7.3810  -21.0210 C.2     3  GLY3        0.2640
     24 O          -8.8390   -7.8950  -20.9880 O.2     3  GLY3       -0.2714
     25 N          -6.7920   -7.7620  -21.8860 N.am    4  SER4       -0.1936
     26 CA         -7.0930   -8.7970  -22.8600 C.3     4  SER4        0.2040
     27 C          -5.9220   -9.1560  -23.7510 C.2     4  SER4        0.2485
     28 O          -5.0550   -8.3230  -24.0180 O.2     4  SER4       -0.2729
     29 CB         -8.2550   -8.3380  -23.7480 C.3     4  SER4        0.2129
     30 OG         -8.2790   -9.0500  -24.9740 O.3     4  SER4       -0.2179
     31 N          -5.8730  -10.4140  -24.2140 N.am    5  PRO5       -0.2715
     32 CA         -4.7840  -10.8360  -25.0990 C.3     5  PRO5        0.1536
     33 C          -5.0190  -10.1020  -26.4190 C.2     5  PRO5        0.2599
     34 O          -6.1280   -9.6200  -26.6640 O.2     5  PRO5       -0.2715
     35 CB         -5.0070  -12.3420  -25.2310 C.3     5  PRO5        0.0310
     36 CG         -5.6890  -12.7030  -23.9530 C.3     5  PRO5        0.0237
     37 CD         -6.6700  -11.5730  -23.7800 C.3     5  PRO5        0.0939
     38 N          -4.0010  -10.0190  -27.2710 N.am    6  PHE6       -0.1960
     39 CA         -4.1550   -9.3100  -28.5360 C.3     6  PHE6        0.1771
     40 C          -3.3620   -9.9680  -29.6620 C.2     6  PHE6        0.2619
     41 O          -2.7900   -9.2810  -30.5080 O.2     6  PHE6       -0.2715
     42 CB         -3.7040   -7.8560  -28.3570 C.3     6  PHE6        0.0574
     43 CG         -4.3980   -6.8820  -29.2640 C.ar    6  PHE6       -0.0200
     44 CD2        -5.7770   -6.7070  -29.1930 C.ar    6  PHE6       -0.0042
     45 CD1        -3.6740   -6.1160  -30.1710 C.ar    6  PHE6       -0.0042
     46 CE2        -6.4250   -5.7820  -30.0110 C.ar    6  PHE6       -0.0003
     47 CE1        -4.3110   -5.1880  -30.9960 C.ar    6  PHE6       -0.0003
     48 CZ         -5.6890   -5.0210  -30.9150 C.ar    6  PHE6       -0.0000
     49 N          -3.3400  -11.2990  -29.6680 N.am    7  ALA7       -0.1977
     50 CA         -2.6120  -12.0610  -30.6810 C.3     7  ALA7        0.1597
     51 C          -3.5010  -12.4840  -31.8500 C.2     7  ALA7        0.2287
     52 O          -3.4490  -11.8860  -32.9280 O.2     7  ALA7       -0.2864
     53 CB         -1.9720  -13.2890  -30.0420 C.3     7  ALA7        0.0319
     54 N          -9.4280    2.3150  -20.5640 N.3     1  PHE1       -0.1227
     55 CA         -8.0280    2.2110  -20.9540 C.3     1  PHE1        0.1736
     56 C          -7.7620    0.8240  -21.5150 C.2     1  PHE1        0.2595
     57 O          -8.0770   -0.1820  -20.8820 O.2     1  PHE1       -0.2718
     58 CB         -7.0960    2.4330  -19.7590 C.3     1  PHE1        0.0547
     59 CG         -5.6310    2.3420  -20.1160 C.ar    1  PHE1       -0.0202
     60 CD1        -5.0000    3.3880  -20.7820 C.ar    1  PHE1       -0.0042
     61 CD2        -4.8960    1.1960  -19.8220 C.ar    1  PHE1       -0.0042
     62 CE1        -3.6600    3.2940  -21.1540 C.ar    1  PHE1       -0.0003
     63 CE2        -3.5570    1.0910  -20.1900 C.ar    1  PHE1       -0.0003
     64 CZ         -2.9380    2.1430  -20.8580 C.ar    1  PHE1       -0.0000
     65 N          -7.1880    0.7800  -22.7100 N.am    2  PHE2       -0.1963
     66 CA         -6.8460   -0.4740  -23.3610 C.3     2  PHE2        0.1756
     67 C          -5.3540   -0.3600  -23.6610 C.2     2  PHE2        0.2461
     68 O          -4.9420    0.4450  -24.4940 O.2     2  PHE2       -0.2730
     69 CB         -7.6460   -0.6410  -24.6540 C.3     2  PHE2        0.0574
     70 CG         -7.4500   -1.9720  -25.3140 C.ar    2  PHE2       -0.0200
     71 CD2        -7.7090   -3.1500  -24.6190 C.ar    2  PHE2       -0.0042
     72 CD1        -6.9990   -2.0520  -26.6300 C.ar    2  PHE2       -0.0042
     73 CE2        -7.5230   -4.3950  -25.2200 C.ar    2  PHE2       -0.0003
     74 CE1        -6.8090   -3.2920  -27.2420 C.ar    2  PHE2       -0.0003
     75 CZ         -7.0720   -4.4660  -26.5350 C.ar    2  PHE2       -0.0000
     76 N          -4.5270   -1.1580  -22.9720 N.am    3  PRO3       -0.2716
     77 CA         -3.0640   -1.1920  -23.1020 C.3     3  PRO3        0.1536
     78 C          -2.4410   -1.3330  -24.4900 C.2     3  PRO3        0.2599
     79 O          -1.3400   -0.8310  -24.7210 O.2     3  PRO3       -0.2715
     80 CB         -2.6620   -2.3310  -22.1630 C.3     3  PRO3        0.0310
     81 CG         -3.8630   -3.2090  -22.1590 C.3     3  PRO3        0.0237
     82 CD         -4.9860   -2.2250  -22.0670 C.3     3  PRO3        0.0939
     83 N          -3.1240   -2.0010  -25.4130 N.am    4  PHE4       -0.1960
     84 CA         -2.5580   -2.1600  -26.7460 C.3     4  PHE4        0.1771
     85 C          -2.7680   -0.9670  -27.6690 C.2     4  PHE4        0.2619
     86 O          -2.3370   -0.9920  -28.8170 O.2     4  PHE4       -0.2715
     87 CB         -3.0690   -3.4400  -27.4080 C.3     4  PHE4        0.0574
     88 CG         -2.5690   -4.6930  -26.7500 C.ar    4  PHE4       -0.0200
     89 CD2        -3.3580   -5.3790  -25.8340 C.ar    4  PHE4       -0.0042
     90 CD1        -1.2930   -5.1730  -27.0270 C.ar    4  PHE4       -0.0042
     91 CE2        -2.8850   -6.5270  -25.2040 C.ar    4  PHE4       -0.0003
     92 CE1        -0.8090   -6.3190  -26.4030 C.ar    4  PHE4       -0.0003
     93 CZ         -1.6090   -6.9990  -25.4880 C.ar    4  PHE4       -0.0000
     94 N          -3.4310    0.0770  -27.1810 N.am    5  ASP5       -0.1973
     95 CA         -3.6090    1.2720  -27.9970 C.3     5  ASP5        0.1651
     96 C          -2.3110    2.0720  -27.8740 C.2     5  ASP5        0.2291
     97 O          -2.1470    3.1270  -28.4880 O.2     5  ASP5       -0.2864
     98 CB         -4.7830    2.1280  -27.5040 C.3     5  ASP5        0.0714
     99 CG         -6.1420    1.5370  -27.8560 C.2     5  ASP5        0.0525
    100 OD1        -6.2320    0.7250  -28.8050 O.co2   5  ASP5       -0.5491
    101 OD2        -7.1380    1.9040  -27.1910 O.co2   5  ASP5       -0.5491
    102 N           1.2540    3.0110  -27.9040 N.3     1  GLY1       -0.1210
    103 CA          2.4090    2.5020  -27.1840 C.3     1  GLY1        0.1956
    104 C           3.5350    3.5070  -26.9980 C.2     1  GLY1        0.2611
    105 O           3.4140    4.6760  -27.3520 O.2     1  GLY1       -0.2717
    106 N           4.6360    3.0400  -26.4220 N.am    2  PHE2       -0.1976
    107 CA          5.8110    3.8680  -26.1830 C.3     2  PHE2        0.1639
    108 C           6.8430    3.5500  -27.2620 C.2     2  PHE2        0.2290
    109 O           6.9290    2.4180  -27.7310 O.2     2  PHE2       -0.2864
    110 CB          6.4120    3.5310  -24.8140 C.3     2  PHE2        0.0560
    111 CG          7.6790    4.2720  -24.5010 C.ar    2  PHE2       -0.0200
    112 CD2         7.6390    5.5840  -24.0530 C.ar    2  PHE2       -0.0042
    113 CD1         8.9130    3.6400  -24.6170 C.ar    2  PHE2       -0.0042
    114 CE2         8.8140    6.2650  -23.7150 C.ar    2  PHE2       -0.0003
    115 CE1        10.0950    4.3040  -24.2840 C.ar    2  PHE2       -0.0003
    116 CZ         10.0460    5.6230  -23.8290 C.ar    2  PHE2       -0.0000
    117 N           7.2670   -7.1960  -32.2540 N.3     1  ILE1       -0.1245
    118 CA          6.4660   -7.8190  -31.2180 C.3     1  ILE1        0.1561
    119 C           6.9360   -9.2600  -31.1130 C.2     1  ILE1        0.2260
    120 O           6.9750   -9.9830  -32.1090 O.2     1  ILE1       -0.2867
    121 CB          4.9610   -7.7930  -31.5660 C.3     1  ILE1        0.0252
    122 CG1         4.4410   -6.3540  -31.5070 C.3     1  ILE1        0.0019
    123 CG2         4.1840   -8.6820  -30.6040 C.3     1  ILE1        0.0019
    124 CD1         2.9570   -6.2210  -31.7740 C.3     1  ILE1        0.0001
    125 N          13.3310   -6.7630  -26.7150 N.3     1  ARG1       -0.1245
    126 CA         13.0240   -5.3390  -26.5750 C.3     1  ARG1        0.1563
    127 C          13.9740   -4.6940  -25.5780 C.2     1  ARG1        0.2260
    128 O          14.5030   -5.3670  -24.6940 O.2     1  ARG1       -0.2867
    129 CB         11.5830   -5.1310  -26.0930 C.3     1  ARG1        0.0307
    130 CG         10.4960   -5.7780  -26.9520 C.3     1  ARG1        0.0489
    131 CD         10.6070   -5.3720  -28.4220 C.3     1  ARG1        0.2205
    132 NE         10.4580   -3.9330  -28.6320 N.pl3   1  ARG1       -0.0865
    133 CZ          9.2970   -3.3110  -28.8240 C.cat   1  ARG1        0.5346
    134 NH2         8.1610   -4.0050  -28.8350 N.pl3   1  ARG1        0.1354
    135 NH1         9.2730   -1.9960  -29.0070 N.pl3   1  ARG1        0.1354
    136 N          12.0520    0.3960  -23.0900 N.3     1  TRP1       -0.1227
    137 CA         10.7310    0.1600  -23.6620 C.3     1  TRP1        0.1734
    138 C           9.9180   -0.7440  -22.7340 C.2     1  TRP1        0.2595
    139 O           8.7340   -0.4930  -22.4900 O.2     1  TRP1       -0.2718
    140 CB         10.8420   -0.4950  -25.0410 C.3     1  TRP1        0.0527
    141 CG          9.5000   -0.7350  -25.6780 C.2     1  TRP1       -0.0139
    142 CD1         8.7910    0.1340  -26.4540 C.2     1  TRP1        0.0907
    143 CD2         8.6750   -1.8910  -25.5170 C.3     1  TRP1        0.0819
    144 NE1         7.5770   -0.4080  -26.7920 N.2     1  TRP1       -0.2482
    145 CE2         7.4830   -1.6600  -26.2390 C.2     1  TRP1        0.0665
    146 CE3         8.8330   -3.1140  -24.8490 C.2     1  TRP1       -0.0164
    147 CZ2         6.4420   -2.5910  -26.2880 C.2     1  TRP1        0.0153
    148 CZ3         7.8040   -4.0400  -24.8950 C.2     1  TRP1       -0.0038
    149 CH2         6.6260   -3.7790  -25.6220 C.2     1  TRP1        0.0009
    150 N          10.5550   -1.8000  -22.2330 N.am    2  ARG2       -0.1980
    151 CA          9.8950   -2.7460  -21.3330 C.3     2  ARG2        0.1597
    152 C           9.3640   -2.0400  -20.0910 C.2     2  ARG2        0.2287
    153 O           8.2020   -2.2280  -19.7140 O.2     2  ARG2       -0.2864
    154 CB         10.8610   -3.8610  -20.9150 C.3     2  ARG2        0.0334
    155 CG         11.1920   -4.8480  -22.0310 C.3     2  ARG2        0.0492
    156 CD         12.3360   -5.7790  -21.6460 C.3     2  ARG2        0.2205
    157 NE         12.0850   -6.4890  -20.3950 N.pl3   2  ARG2       -0.0865
    158 CZ         12.9380   -7.3490  -19.8440 C.cat   2  ARG2        0.5346
    159 NH1        14.0990   -7.6100  -20.4440 N.pl3   2  ARG2        0.1354
    160 NH2        12.6490   -7.9290  -18.6830 N.pl3   2  ARG2        0.1354
    161 N           8.8190    1.2740  -19.5600 N.3     1  ALA1       -0.1231
    162 CA          7.8180    2.2800  -19.8960 C.3     1  ALA1        0.1694
    163 C           6.4650    1.6580  -20.2110 C.2     1  ALA1        0.2593
    164 O           5.4230    2.1640  -19.7940 O.2     1  ALA1       -0.2718
    165 CB          8.2970    3.1140  -21.0900 C.3     1  ALA1        0.0304
    166 N           6.4890    0.5530  -20.9450 N.am    2  THR2       -0.1939
    167 CA          5.2670   -0.1200  -21.3470 C.3     2  THR2        0.2028
    168 C           4.5910   -0.8310  -20.1740 C.2     2  THR2        0.2642
    169 O           3.3740   -0.7580  -20.0140 O.2     2  THR2       -0.2714
    170 CB          5.5700   -1.1200  -22.4760 C.3     2  THR2        0.1808
    171 OG1         6.2900   -0.4390  -23.5140 O.3     2  THR2       -0.2208
    172 CG2         4.2820   -1.6990  -23.0490 C.3     2  THR2        0.0379
    173 N           5.3850   -1.5200  -19.3640 N.am    3  TYR3       -0.1959
    174 CA          4.8590   -2.2100  -18.1980 C.3     3  TYR3        0.1771
    175 C           4.2520   -1.1600  -17.2650 C.2     3  TYR3        0.2619
    176 O           3.1690   -1.3560  -16.7170 O.2     3  TYR3       -0.2715
    177 CB          5.9830   -2.9640  -17.4880 C.3     3  TYR3        0.0574
    178 CG          5.6050   -3.5820  -16.1540 C.ar    3  TYR3       -0.0198
    179 CD1         4.7280   -4.6670  -16.0780 C.ar    3  TYR3       -0.0009
    180 CD2         6.1620   -3.1070  -14.9700 C.ar    3  TYR3       -0.0009
    181 CE1         4.4210   -5.2630  -14.8560 C.ar    3  TYR3        0.0417
    182 CE2         5.8580   -3.6950  -13.7400 C.ar    3  TYR3        0.0417
    183 CZ          4.9920   -4.7720  -13.6910 C.ar    3  TYR3        0.1957
    184 OH          4.7350   -5.3790  -12.4820 O.3     3  TYR3       -0.2866
    185 N           4.9480   -0.0360  -17.1060 N.am    4  GLN4       -0.1963
    186 CA          4.4550    1.0240  -16.2390 C.3     4  GLN4        0.1733
    187 C           3.1640    1.6300  -16.7910 C.2     4  GLN4        0.2616
    188 O           2.2490    1.9440  -16.0300 O.2     4  GLN4       -0.2715
    189 CB          5.5150    2.1160  -16.0610 C.3     4  GLN4        0.0408
    190 CG          5.0780    3.2170  -15.1160 C.3     4  GLN4        0.0908
    191 CD          4.5910    2.6610  -13.7770 C.2     4  GLN4        0.2608
    192 OE1         5.3070    1.9090  -13.1080 O.2     4  GLN4       -0.2717
    193 NE2         3.3690    3.0270  -13.3870 N.am    4  GLN4       -0.0878
    194 N           3.0830    1.7990  -18.1080 N.am    5  ASN5       -0.1958
    195 CA          1.8590    2.3490  -18.6820 C.3     5  ASN5        0.1819
    196 C           0.6800    1.4990  -18.2800 C.2     5  ASN5        0.2621
    197 O          -0.4090    2.0140  -18.0420 O.2     5  ASN5       -0.2715
    198 CB          1.9290    2.4190  -20.2090 C.3     5  ASN5        0.1195
    199 CG          2.6720    3.6270  -20.6810 C.2     5  ASN5        0.2630
    200 OD1         2.7520    4.6230  -19.9670 O.2     5  ASN5       -0.2716
    201 ND2         3.2050    3.5650  -21.8920 N.am    5  ASN5       -0.0877
    202 N           0.9050    0.1950  -18.2010 N.am    6  ASP6       -0.1959
    203 CA         -0.1490   -0.7320  -17.8050 C.3     6  ASP6        0.1783
    204 C          -0.4590   -0.6250  -16.3100 C.2     6  ASP6        0.2619
    205 O          -1.6250   -0.6460  -15.9170 O.2     6  ASP6       -0.2715
    206 CB          0.2470   -2.1670  -18.1550 C.3     6  ASP6        0.0728
    207 CG          0.2430   -2.4230  -19.6540 C.2     6  ASP6        0.0526
    208 OD1        -0.2190   -1.5490  -20.4190 O.co2   6  ASP6       -0.5491
    209 OD2         0.6980   -3.5060  -20.0640 O.co2   6  ASP6       -0.5491
    210 N           0.5740   -0.5240  -15.4770 N.am    7  LEU7       -0.1977
    211 CA          0.3500   -0.3960  -14.0390 C.3     7  LEU7        0.1596
    212 C          -0.3500    0.9310  -13.7740 C.2     7  LEU7        0.2287
    213 O          -1.2220    1.0270  -12.9110 O.2     7  LEU7       -0.2864
    214 CB          1.6720   -0.4530  -13.2570 C.3     7  LEU7        0.0297
    215 CG          2.4910   -1.7490  -13.2970 C.3     7  LEU7        0.0022
    216 CD2         3.5190   -1.7060  -12.1660 C.3     7  LEU7        0.0001
    217 CD1         1.5950   -2.9640  -13.1410 C.3     7  LEU7        0.0001
    218 N          -3.8950    0.5130  -14.3600 N.3     1  ILE1       -0.1245
    219 CA         -4.5470   -0.1680  -13.2590 C.3     1  ILE1        0.1561
    220 C          -4.7350    0.7810  -12.0750 C.2     1  ILE1        0.2260
    221 O          -5.7660    0.7500  -11.4010 O.2     1  ILE1       -0.2867
    222 CB         -3.7450   -1.3980  -12.8320 C.3     1  ILE1        0.0252
    223 CG1        -3.9080   -2.4870  -13.8930 C.3     1  ILE1        0.0019
    224 CG2        -4.2110   -1.8800  -11.4620 C.3     1  ILE1        0.0019
    225 CD1        -2.9960   -3.6630  -13.7080 C.3     1  ILE1        0.0001
    226 N         -11.8360   -8.0030  -17.9640 N.3     1  PHE1       -0.1241
    227 CA        -10.9350   -8.8990  -18.6700 C.3     1  PHE1        0.1605
    228 C         -11.5580   -9.8960  -19.6490 C.2     1  PHE1        0.2264
    229 O         -12.2500  -10.8380  -19.2540 O.2     1  PHE1       -0.2867
    230 CB        -10.0730   -9.6410  -17.6480 C.3     1  PHE1        0.0534
    231 CG         -9.1440   -8.7380  -16.8850 C.ar    1  PHE1       -0.0203
    232 CD1        -7.8560   -8.4960  -17.3460 C.ar    1  PHE1       -0.0042
    233 CD2        -9.5780   -8.0900  -15.7290 C.ar    1  PHE1       -0.0042
    234 CE1        -7.0090   -7.6210  -16.6690 C.ar    1  PHE1       -0.0003
    235 CE2        -8.7440   -7.2130  -15.0430 C.ar    1  PHE1       -0.0003
    236 CZ         -7.4540   -6.9760  -15.5120 C.ar    1  PHE1       -0.0000
    237 N          -4.0190  -16.5400  -20.9220 N.3     1  ASP1       -0.1227
    238 CA         -3.1140  -15.3950  -20.9810 C.3     1  ASP1        0.1748
    239 C          -2.5810  -15.0840  -19.5750 C.2     1  ASP1        0.2596
    240 O          -3.3200  -14.5900  -18.7080 O.2     1  ASP1       -0.2718
    241 CB         -3.8640  -14.1780  -21.5230 C.3     1  ASP1        0.0701
    242 CG         -3.0110  -12.9240  -21.5440 C.2     1  ASP1        0.0523
    243 OD1        -3.5860  -11.8160  -21.5840 O.co2   1  ASP1       -0.5491
    244 OD2        -1.7700  -13.0390  -21.5300 O.co2   1  ASP1       -0.5491
    245 N          -1.3020  -15.3630  -19.3470 N.am    2  ASP2       -0.1962
    246 CA         -0.7170  -15.1130  -18.0370 C.3     2  ASP2        0.1783
    247 C          -0.5660  -13.6290  -17.7370 C.2     2  ASP2        0.2621
    248 O          -0.5030  -13.2290  -16.5770 O.2     2  ASP2       -0.2715
    249 CB          0.6310  -15.8290  -17.8940 C.3     2  ASP2        0.0728
    250 CG          1.6370  -15.4290  -18.9600 C.2     2  ASP2        0.0526
    251 OD1         1.2630  -14.7260  -19.9310 O.co2   2  ASP2       -0.5491
    252 OD2         2.8100  -15.8390  -18.8220 O.co2   2  ASP2       -0.5491
    253 N          -0.5180  -12.8130  -18.7820 N.am    3  GLY3       -0.1940
    254 CA         -0.4080  -11.3830  -18.5790 C.3     3  GLY3        0.2014
    255 C          -1.6950  -10.8790  -17.9490 C.2     3  GLY3        0.2639
    256 O          -1.6710  -10.1010  -16.9860 O.2     3  GLY3       -0.2714
    257 N          -2.8240  -11.3290  -18.4950 N.am    4  SER4       -0.1949
    258 CA         -4.1310  -10.9260  -17.9920 C.3     4  SER4        0.1924
    259 C          -4.3340  -11.3900  -16.5570 C.2     4  SER4        0.2314
    260 O          -4.7960  -10.6240  -15.7150 O.2     4  SER4       -0.2863
    261 CB         -5.2460  -11.4780  -18.8900 C.3     4  SER4        0.2116
    262 OG         -5.2950  -10.7630  -20.1150 O.3     4  SER4       -0.2180
    263 N          -2.0400  -12.0170  -14.3380 N.3     1  PHE1       -0.1227
    264 CA         -1.1500  -11.2330  -13.4850 C.3     1  PHE1        0.1736
    265 C          -1.9070   -9.9900  -13.0590 C.2     1  PHE1        0.2595
    266 O          -1.9940   -9.6710  -11.8710 O.2     1  PHE1       -0.2718
    267 CB          0.1080  -10.8150  -14.2670 C.3     1  PHE1        0.0547
    268 CG          1.0050   -9.8240  -13.5400 C.ar    1  PHE1       -0.0202
    269 CD2         2.0950  -10.2630  -12.8010 C.ar    1  PHE1       -0.0042
    270 CD1         0.7740   -8.4460  -13.6350 C.ar    1  PHE1       -0.0042
    271 CE2         2.9490   -9.3560  -12.1680 C.ar    1  PHE1       -0.0003
    272 CE1         1.6280   -7.5220  -13.0010 C.ar    1  PHE1       -0.0003
    273 CZ          2.7150   -7.9790  -12.2670 C.ar    1  PHE1       -0.0000
    274 N          -2.4610   -9.2980  -14.0490 N.am    2  GLU2       -0.1979
    275 CA         -3.1960   -8.0700  -13.8170 C.3     2  GLU2        0.1600
    276 C          -4.4060   -8.2400  -12.9170 C.2     2  GLU2        0.2287
    277 O          -4.7460   -7.3290  -12.1600 O.2     2  GLU2       -0.2864
    278 CB         -3.6130   -7.4620  -15.1500 C.3     2  GLU2        0.0356
    279 CG         -2.4240   -7.1970  -16.0380 C.3     2  GLU2        0.0439
    280 CD         -2.8140   -6.6570  -17.3830 C.2     2  GLU2        0.0504
    281 OE1        -3.6160   -7.3030  -18.0830 O.co2   2  GLU2       -0.5492
    282 OE2        -2.3100   -5.5760  -17.7350 O.co2   2  GLU2       -0.5492
@<TRIPOS>UNITY_ATOM_ATTR
100 1
charge -1
208 1
charge -1
243 1
charge -1
251 1
charge -1
281 1
charge -1
@<TRIPOS>BOND
     1     1     2    1
     2     2     3    1
     3     2     5    1
     4     3    13   am
     5     3     4    2
     6     5     6    1
     7     6     7   ar
     8     6     8   ar
     9     7     9   ar
    10     8    10   ar
    11     9    11   ar
    12    10    11   ar
    13    11    12    1
    14    13    14    1
    15    14    17    1
    16    14    15    1
    17    15    16    2
    18    15    21   am
    19    17    18    1
    20    18    20    1
    21    18    19    1
    22    21    22    1
    23    22    23    1
    24    23    25   am
    25    23    24    2
    26    25    26    1
    27    26    27    1
    28    26    29    1
    29    27    31   am
    30    27    28    2
    31    29    30    1
    32    31    32    1
    33    31    37    1
    34    32    33    1
    35    32    35    1
    36    33    38   am
    37    33    34    2
    38    35    36    1
    39    36    37    1
    40    38    39    1
    41    39    40    1
    42    39    42    1
    43    40    41    2
    44    40    49   am
    45    42    43    1
    46    43    45   ar
    47    43    44   ar
    48    44    46   ar
    49    45    47   ar
    50    46    48   ar
    51    47    48   ar
    52    49    50    1
    53    50    51    1
    54    50    53    1
    55    51    52    2
    56    54    55    1
    57    55    56    1
    58    55    58    1
    59    56    65   am
    60    56    57    2
    61    58    59    1
    62    59    60   ar
    63    59    61   ar
    64    60    62   ar
    65    61    63   ar
    66    62    64   ar
    67    63    64   ar
    68    65    66    1
    69    66    69    1
    70    66    67    1
    71    67    68    2
    72    67    76   am
    73    69    70    1
    74    70    72   ar
    75    70    71   ar
    76    71    73   ar
    77    72    74   ar
    78    73    75   ar
    79    74    75   ar
    80    76    77    1
    81    76    82    1
    82    77    78    1
    83    77    80    1
    84    78    83   am
    85    78    79    2
    86    80    81    1
    87    81    82    1
    88    83    84    1
    89    84    85    1
    90    84    87    1
    91    85    86    2
    92    85    94   am
    93    87    88    1
    94    88    90   ar
    95    88    89   ar
    96    89    91   ar
    97    90    92   ar
    98    91    93   ar
    99    92    93   ar
   100    94    95    1
   101    95    96    1
   102    95    98    1
   103    96    97    2
   104    98    99    1
   105    99   100   ar
   106    99   101   ar
   107   102   103    1
   108   103   104    1
   109   104   105    2
   110   104   106   am
   111   106   107    1
   112   107   108    1
   113   107   110    1
   114   108   109    2
   115   110   111    1
   116   111   113   ar
   117   111   112   ar
   118   112   114   ar
   119   113   115   ar
   120   114   116   ar
   121   115   116   ar
   122   117   118    1
   123   118   121    1
   124   118   119    1
   125   119   120    2
   126   121   122    1
   127   121   123    1
   128   122   124    1
   129   125   126    1
   130   126   129    1
   131   126   127    1
   132   127   128    2
   133   129   130    1
   134   130   131    1
   135   131   132    1
   136   132   133    2
   137   133   135    1
   138   133   134    1
   139   136   137    1
   140   137   140    1
   141   137   138    1
   142   138   139    2
   143   138   150   am
   144   140   141    1
   145   141   142    2
   146   141   143    1
   147   142   144    1
   148   143   145    1
   149   143   146    1
   150   144   145    2
   151   145   147    1
   152   146   148    2
   153   147   149    2
   154   148   149    1
   155   150   151    1
   156   151   154    1
   157   151   152    1
   158   152   153    2
   159   154   155    1
   160   155   156    1
   161   156   157    1
   162   157   158    2
   163   158   159    1
   164   158   160    1
   165   161   162    1
   166   162   165    1
   167   162   163    1
   168   163   166   am
   169   163   164    2
   170   166   167    1
   171   167   170    1
   172   167   168    1
   173   168   169    2
   174   168   173   am
   175   170   171    1
   176   170   172    1
   177   173   174    1
   178   174   177    1
   179   174   175    1
   180   175   185   am
   181   175   176    2
   182   177   178    1
   183   178   179   ar
   184   178   180   ar
   185   179   181   ar
   186   180   182   ar
   187   181   183   ar
   188   182   183   ar
   189   183   184    1
   190   185   186    1
   191   186   187    1
   192   186   189    1
   193   187   194   am
   194   187   188    2
   195   189   190    1
   196   190   191    1
   197   191   193   am
   198   191   192    2
   199   194   195    1
   200   195   198    1
   201   195   196    1
   202   196   202   am
   203   196   197    2
   204   198   199    1
   205   199   201   am
   206   199   200    2
   207   202   203    1
   208   203   206    1
   209   203   204    1
   210   204   205    2
   211   204   210   am
   212   206   207    1
   213   207   208   ar
   214   207   209   ar
   215   210   211    1
   216   211   212    1
   217   211   214    1
   218   212   213    2
   219   214   215    1
   220   215   217    1
   221   215   216    1
   222   218   219    1
   223   219   222    1
   224   219   220    1
   225   220   221    2
   226   222   223    1
   227   222   224    1
   228   223   225    1
   229   226   227    1
   230   227   228    1
   231   227   230    1
   232   228   229    2
   233   230   231    1
   234   231   232   ar
   235   231   233   ar
   236   232   234   ar
   237   233   235   ar
   238   234   236   ar
   239   235   236   ar
   240   237   238    1
   241   238   241    1
   242   238   239    1
   243   239   245   am
   244   239   240    2
   245   241   242    1
   246   242   243   ar
   247   242   244   ar
   248   245   246    1
   249   246   249    1
   250   246   247    1
   251   247   253   am
   252   247   248    2
   253   249   250    1
   254   250   251   ar
   255   250   252   ar
   256   253   254    1
   257   254   255    1
   258   255   257   am
   259   255   256    2
   260   257   258    1
   261   258   261    1
   262   258   259    1
   263   259   260    2
   264   261   262    1
   265   263   264    1
   266   264   267    1
   267   264   265    1
   268   265   274   am
   269   265   266    2
   270   267   268    1
   271   268   270   ar
   272   268   269   ar
   273   269   271   ar
   274   270   272   ar
   275   271   273   ar
   276   272   273   ar
   277   274   275    1
   278   275   278    1
   279   275   276    1
   280   276   277    2
   281   278   279    1
   282   279   280    1
   283   280   281   ar
   284   280   282   ar
