@<TRIPOS>MOLECULE
./8rat/ligand.pdb
 21 22 0 0 0
SMALL
GASTEIGER

@<TRIPOS>ATOM
      1  P         30.0590   16.9600    6.1320 P.3     1  C2P1        0.5327
      2  O1P       30.2890   17.9340    7.2820 O.3     1  C2P1       -0.1145
      3  O2P       28.7220   16.8800    5.5630 O.3     1  C2P1       -0.1145
      4  O3P       31.1010   17.3240    5.0660 O.2     1  C2P1       -0.2224
      5  C5'       32.3540   12.1680    4.9290 C.3     1  C2P1        0.2142
      6  O5'       33.5100   11.6060    5.5240 O.3     1  C2P1       -0.2176
      7  C4'       31.7990   13.0360    6.0580 C.3     1  C2P1        0.1830
      8  O4'       31.5680   12.6560    7.4420 O.3     1  C2P1       -0.3306
      9  C3'       32.5960   14.3630    6.2210 C.3     1  C2P1        0.2135
     10  O3'       32.5210   15.0100    4.9370 O.3     1  C2P1       -0.2176
     11  C2'       31.6240   15.0230    7.2860 C.3     1  C2P1        0.2082
     12  O2'       30.4360   15.5520    6.5890 O.3     1  C2P1       -0.2654
     13  C1'       31.4660   13.8380    8.2720 C.3     1  C2P1        0.2394
     14  N1        32.4970   13.6750    9.2330 N.ar    1  C2P1       -0.2536
     15  C2        32.0800   13.9480   10.4840 C.ar    1  C2P1        0.3532
     16  O2        30.9960   14.4370   10.5820 O.2     1  C2P1       -0.2443
     17  N3        32.9740   13.7080   11.4460 N.ar    1  C2P1       -0.1739
     18  C4        34.1690   13.1480   11.3050 C.ar    1  C2P1        0.1759
     19  N4        35.0380   12.8870   12.2820 N.pl3   1  C2P1       -0.1070
     20  C5        34.5270   12.7960    9.9960 C.ar    1  C2P1        0.0566
     21  C6        33.6660   13.1000    9.0270 C.ar    1  C2P1        0.0850
@<TRIPOS>BOND
     1     1     2    1
     2     1     3    1
     3     1     4    2
     4     1    12    1
     5     5     6    1
     6     5     7    1
     7     7     8    1
     8     7     9    1
     9     8    13    1
    10     9    10    1
    11     9    11    1
    12    11    12    1
    13    11    13    1
    14    13    14    1
    15    14    15   ar
    16    14    21   ar
    17    15    16    2
    18    15    17   ar
    19    17    18   ar
    20    18    19    1
    21    18    20   ar
    22    20    21   ar
