@<TRIPOS>MOLECULE
./1h0s/protein.pdb
 190 188 0 0 0
SMALL
GASTEIGER

@<TRIPOS>ATOM
      1 N          21.3650   67.7820   18.1650 N.3     1  GLY1       -0.1210
      2 CA         20.9210   68.9780   17.4780 C.3     1  GLY1        0.1940
      3 C          21.6940   69.3780   16.2470 C.2     1  GLY1        0.2454
      4 O          22.3610   68.5450   15.6030 O.2     1  GLY1       -0.2732
      5 N          21.6020   70.6540   15.8620 N.am    2  PRO2       -0.2717
      6 CA         22.1480   71.0840   14.5720 C.3     2  PRO2        0.1535
      7 C          23.5860   70.7020   14.2680 C.2     2  PRO2        0.2599
      8 O          24.4390   70.7910   15.1340 O.2     2  PRO2       -0.2715
      9 CB         22.0190   72.6110   14.5950 C.3     2  PRO2        0.0310
     10 CG         20.8070   72.8460   15.4540 C.3     2  PRO2        0.0237
     11 CD         20.8570   71.7410   16.5270 C.3     2  PRO2        0.0939
     12 N          23.8010   70.2440   13.0150 N.am    3  ASN3       -0.1959
     13 CA         25.0980   69.9160   12.4070 C.3     3  ASN3        0.1819
     14 C          25.6490   68.5630   12.8120 C.2     3  ASN3        0.2621
     15 O          26.6000   68.0890   12.2150 O.2     3  ASN3       -0.2715
     16 CB         26.1460   71.0160   12.6130 C.3     3  ASN3        0.1195
     17 CG         25.7470   72.3210   11.8940 C.2     3  ASN3        0.2630
     18 OD1        25.4880   72.3120   10.7000 O.2     3  ASN3       -0.2716
     19 ND2        25.5330   73.3830   12.6650 N.am    3  ASN3       -0.0877
     20 N          24.9850   67.8850   13.7490 N.am    4  LEU4       -0.1977
     21 CA         25.4290   66.5480   14.1720 C.3     4  LEU4        0.1596
     22 C          25.1110   65.4600   13.1580 C.2     4  LEU4        0.2287
     23 O          25.7540   64.4050   13.1830 O.2     4  LEU4       -0.2864
     24 CB         24.9680   66.2240   15.5940 C.3     4  LEU4        0.0297
     25 CG         25.7660   67.0620   16.5810 C.3     4  LEU4        0.0022
     26 CD2        24.9800   67.4500   17.8140 C.3     4  LEU4        0.0001
     27 CD1        27.1050   66.3490   16.9800 C.3     4  LEU4        0.0001
     28 N          28.4740   64.5610   10.9960 N.3     1  LEU1       -0.1245
     29 CA         29.6100   63.8510   11.5570 C.3     1  LEU1        0.1561
     30 C          30.2580   62.9660   10.4900 C.2     1  LEU1        0.2260
     31 O          29.5660   62.3310    9.7380 O.2     1  LEU1       -0.2867
     32 CB         29.1730   62.9650   12.7450 C.3     1  LEU1        0.0270
     33 CG         28.9120   63.6790   14.0750 C.3     1  LEU1        0.0019
     34 CD2        28.2500   62.7210   15.1110 C.3     1  LEU1        0.0001
     35 CD1        30.1670   64.3680   14.6460 C.3     1  LEU1        0.0001
     36 N          32.7650   66.6380    8.8070 N.3     1  ARG1       -0.1241
     37 CA         32.9870   67.8980    9.5920 C.3     1  ARG1        0.1606
     38 C          34.4470   68.1090   10.0320 C.2     1  ARG1        0.2264
     39 O          34.7820   69.1210   10.6850 O.2     1  ARG1       -0.2867
     40 CB         32.1030   67.9300   10.8610 C.3     1  ARG1        0.0562
     41 CG         30.8040   68.6450   10.7090 C.2     1  ARG1        0.0159
     42 CD         30.0040   68.9030   12.0100 C.2     1  ARG1        0.1886
     43 NE         30.5500   68.3000   13.2350 N.pl3   1  ARG1       -0.0578
     44 CZ         30.0830   68.5520   14.4600 C.cat   1  ARG1        0.5393
     45 NH1        29.0470   69.3680   14.6110 N.pl3   1  ARG1        0.1358
     46 NH2        30.6530   68.0020   15.5370 N.pl3   1  ARG1        0.1358
     47 N          22.8690   66.4270   23.1610 N.3     1  ASN1       -0.1225
     48 CA         23.9370   67.2200   22.5740 C.3     1  ASN1        0.1785
     49 C          23.2410   68.1750   21.5970 C.2     1  ASN1        0.2597
     50 O          22.9080   67.8270   20.4840 O.2     1  ASN1       -0.2718
     51 CB         24.9300   66.3350   21.8260 C.3     1  ASN1        0.1169
     52 CG         26.0950   67.1440   21.2460 C.2     1  ASN1        0.2627
     53 OD1        26.0330   68.3930   21.1950 O.2     1  ASN1       -0.2716
     54 ND2        27.1470   66.4430   20.7470 N.am    1  ASN1       -0.0877
     55 N          22.9710   69.3790   22.0890 N.am    2  ALA2       -0.1966
     56 CA         22.1780   70.3510   21.3150 C.3     2  ALA2        0.1728
     57 C          22.8790   71.1470   20.2020 C.2     2  ALA2        0.2617
     58 O          22.2410   72.0080   19.5510 O.2     2  ALA2       -0.2715
     59 CB         21.4730   71.2820   22.2720 C.3     2  ALA2        0.0334
     60 N          24.1410   70.8390   19.9550 N.am    3  GLY3       -0.1940
     61 CA         24.8840   71.5770   18.9460 C.3     3  GLY3        0.2014
     62 C          24.9030   73.0510   19.2400 C.2     3  GLY3        0.2639
     63 O          24.9550   73.4870   20.4260 O.2     3  GLY3       -0.2714
     64 N          24.8240   73.8620   18.1780 N.am    4  GLY4       -0.1939
     65 CA         24.8630   75.2980   18.3870 C.3     4  GLY4        0.2014
     66 C          23.7880   75.8920   19.2890 C.2     4  GLY4        0.2639
     67 O          23.9820   76.9630   19.8920 O.2     4  GLY4       -0.2714
     68 N          22.6180   75.2160   19.4020 N.am    5  LEU5       -0.1963
     69 CA         21.5300   75.6950   20.2370 C.3     5  LEU5        0.1728
     70 C          21.8450   75.6220   21.7440 C.2     5  LEU5        0.2617
     71 O          21.2160   76.3070   22.5440 O.2     5  LEU5       -0.2715
     72 CB         20.2920   74.8790   19.9350 C.3     5  LEU5        0.0311
     73 CG         19.8160   74.8980   18.4880 C.3     5  LEU5        0.0022
     74 CD2        18.6260   73.9580   18.3320 C.3     5  LEU5        0.0001
     75 CD1        19.4570   76.2910   18.1450 C.3     5  LEU5        0.0001
     76 N          22.8830   74.8560   22.0780 N.am    6  THR6       -0.1937
     77 CA         23.3990   74.8570   23.4390 C.3     6  THR6        0.2028
     78 C          23.6400   76.2600   23.9940 C.2     6  THR6        0.2642
     79 O          23.3430   76.6080   25.1260 O.2     6  THR6       -0.2714
     80 CB         24.7230   74.0930   23.4730 C.3     6  THR6        0.1808
     81 OG1        24.5110   72.7680   22.9850 O.3     6  THR6       -0.2208
     82 CG2        25.2000   73.9050   24.9310 C.3     6  THR6        0.0379
     83 N          24.2150   77.0900   23.1460 N.am    7  HIS7       -0.1973
     84 CA         24.6910   78.4090   23.4820 C.3     7  HIS7        0.1656
     85 C          23.6480   79.5260   23.2670 C.2     7  HIS7        0.2291
     86 O          23.9050   80.6700   23.6410 O.2     7  HIS7       -0.2864
     87 CB         25.9380   78.6670   22.6030 C.3     7  HIS7        0.0771
     88 CG         26.8900   77.5040   22.6020 C.ar    7  HIS7        0.0820
     89 ND1        27.4420   76.9590   23.7520 N.ar    7  HIS7       -0.2267
     90 CD2        27.2840   76.6950   21.5860 C.ar    7  HIS7        0.1154
     91 CE1        28.1690   75.8880   23.4110 C.ar    7  HIS7        0.1986
     92 NE2        28.0700   75.7070   22.1120 N.ar    7  HIS7       -0.2212
     93 N          25.8940   66.4170   26.7320 N.3     1  VAL1       -0.1231
     94 CA         27.1210   65.8670   26.1560 C.3     1  VAL1        0.1692
     95 C          27.5890   66.7520   25.0090 C.2     1  VAL1        0.2592
     96 O          26.7710   67.1840   24.1940 O.2     1  VAL1       -0.2718
     97 CB         26.9370   64.4360   25.6560 C.3     1  VAL1        0.0266
     98 CG1        28.1640   63.9020   24.8480 C.3     1  VAL1        0.0020
     99 CG2        26.6590   63.5320   26.8200 C.3     1  VAL1        0.0020
    100 N          28.8750   67.0300   24.9340 N.am    2  HIS2       -0.1962
    101 CA         29.5230   67.6060   23.7160 C.3     2  HIS2        0.1784
    102 C          30.7610   66.7470   23.3860 C.2     2  HIS2        0.2620
    103 O          31.5260   66.3680   24.2720 O.2     2  HIS2       -0.2715
    104 CB         29.9150   69.0590   23.9520 C.3     2  HIS2        0.0745
    105 CG         28.7380   69.9120   24.3520 C.2     2  HIS2        0.0653
    106 ND1        27.7340   70.1800   23.4550 N.2     2  HIS2       -0.2310
    107 CD2        28.3220   70.3960   25.5390 C.3     2  HIS2        0.1683
    108 CE1        26.7800   70.8660   24.0590 C.2     2  HIS2        0.1939
    109 NE2        27.1020   71.0110   25.3310 N.2     2  HIS2       -0.2440
    110 N          30.9290   66.4540   22.1070 N.am    3  ILE3       -0.1963
    111 CA         32.0560   65.6920   21.6110 C.3     3  ILE3        0.1727
    112 C          33.3910   66.4390   21.8140 C.2     3  ILE3        0.2617
    113 O          34.3500   65.8770   22.3320 O.2     3  ILE3       -0.2715
    114 CB         31.7870   65.3620   20.1010 C.3     3  ILE3        0.0290
    115 CG1        30.5900   64.4200   19.9490 C.3     3  ILE3        0.0022
    116 CG2        33.0470   64.7900   19.3680 C.3     3  ILE3        0.0023
    117 CD1        30.0780   64.3060   18.5420 C.3     3  ILE3        0.0001
    118 N          33.4180   67.7250   21.4300 N.am    4  SER4       -0.1936
    119 CA         34.5600   68.6050   21.5890 C.3     4  SER4        0.2055
    120 C          34.6030   69.2160   22.9680 C.2     4  SER4        0.2643
    121 O          33.5830   69.2990   23.6470 O.2     4  SER4       -0.2714
    122 CB         34.5340   69.6900   20.5060 C.3     4  SER4        0.2130
    123 OG         33.5380   70.6860   20.7680 O.3     4  SER4       -0.2179
    124 N          35.7990   69.6490   23.3810 N.am    5  ASN5       -0.1957
    125 CA         35.9180   70.3520   24.6620 C.3     5  ASN5        0.1819
    126 C          35.5330   71.8270   24.3850 C.2     5  ASN5        0.2621
    127 O          36.3760   72.6140   24.0070 O.2     5  ASN5       -0.2715
    128 CB         37.3520   70.2810   25.1930 C.3     5  ASN5        0.1195
    129 CG         37.4860   70.9620   26.5390 C.2     5  ASN5        0.2630
    130 OD1        36.5660   71.6820   26.9670 O.2     5  ASN5       -0.2716
    131 ND2        38.6270   70.7550   27.2150 N.am    5  ASN5       -0.0877
    132 N          34.2680   72.1470   24.6000 N.am    6  VAL6       -0.1977
    133 CA         33.7540   73.4960   24.3850 C.3     6  VAL6        0.1596
    134 C          34.4550   74.5400   25.1990 C.2     6  VAL6        0.2287
    135 O          34.5100   75.7050   24.8100 O.2     6  VAL6       -0.2864
    136 CB         32.2490   73.5660   24.6090 C.3     6  VAL6        0.0276
    137 CG1        31.5050   72.7780   23.5230 C.3     6  VAL6        0.0022
    138 CG2        31.8570   73.1970   26.0550 C.3     6  VAL6        0.0022
    139 N          37.4790   76.3110   23.3260 N.3     1  ARG1       -0.1245
    140 CA         37.1990   76.8400   21.9930 C.3     1  ARG1        0.1563
    141 C          36.8120   78.3260   22.1180 C.2     1  ARG1        0.2260
    142 O          37.2550   78.9980   23.0990 O.2     1  ARG1       -0.2867
    143 CB         36.1380   75.9640   21.3140 C.3     1  ARG1        0.0307
    144 CG         36.5530   74.4960   21.1040 C.3     1  ARG1        0.0489
    145 CD         35.5230   73.6720   20.3700 C.3     1  ARG1        0.2205
    146 NE         35.2700   74.1760   19.0390 N.pl3   1  ARG1       -0.0865
    147 CZ         34.2670   73.7390   18.2780 C.cat   1  ARG1        0.5346
    148 NH2        33.4570   72.7950   18.7340 N.pl3   1  ARG1        0.1354
    149 NH1        34.0960   74.2530   17.0680 N.pl3   1  ARG1        0.1354
    150 N          32.1700   82.1860   23.1230 N.3     1  PHE1       -0.1227
    151 CA         30.7250   81.9840   23.0970 C.3     1  PHE1        0.1736
    152 C          30.3350   80.5320   23.3810 C.2     1  PHE1        0.2595
    153 O          29.1970   80.2810   23.8410 O.2     1  PHE1       -0.2718
    154 CB         30.0810   82.5000   21.7940 C.3     1  PHE1        0.0547
    155 CG         30.5320   81.8100   20.5560 C.ar    1  PHE1       -0.0202
    156 CD2        29.9930   80.5860   20.1940 C.ar    1  PHE1       -0.0042
    157 CD1        31.3990   82.4150   19.6750 C.ar    1  PHE1       -0.0042
    158 CE2        30.3820   79.9690   19.0170 C.ar    1  PHE1       -0.0003
    159 CE1        31.7530   81.7890   18.4910 C.ar    1  PHE1       -0.0003
    160 CZ         31.2840   80.5910   18.1760 C.ar    1  PHE1       -0.0000
    161 N          31.2440   79.5630   23.1220 N.am    2  ARG2       -0.1980
    162 CA         30.9430   78.1480   23.3590 C.3     2  ARG2        0.1597
    163 C          31.1170   77.7210   24.8100 C.2     2  ARG2        0.2287
    164 O          30.7080   76.6190   25.2110 O.2     2  ARG2       -0.2864
    165 CB         31.8570   77.2520   22.5580 C.3     2  ARG2        0.0334
    166 CG         31.6670   77.3180   21.0930 C.3     2  ARG2        0.0492
    167 CD         32.2720   76.1240   20.3290 C.3     2  ARG2        0.2205
    168 NE         32.4810   76.6290   18.9860 N.pl3   2  ARG2       -0.0865
    169 CZ         31.5830   76.6010   18.0070 C.cat   2  ARG2        0.5346
    170 NH2        30.4390   75.9320   18.1360 N.pl3   2  ARG2        0.1354
    171 NH1        31.8680   77.1670   16.8470 N.pl3   2  ARG2        0.1354
    172 N          32.0510   66.7890   28.4780 N.3     1  VAL1       -0.1245
    173 CA         32.5850   67.3880   27.2330 C.3     1  VAL1        0.1561
    174 C          34.0170   66.9000   26.9350 C.2     1  VAL1        0.2260
    175 O          34.8080   66.6350   27.8510 O.2     1  VAL1       -0.2867
    176 CB         32.5590   68.9560   27.2760 C.3     1  VAL1        0.0252
    177 CG1        31.2440   69.4850   27.7940 C.3     1  VAL1        0.0019
    178 CG2        33.7100   69.5710   28.0660 C.3     1  VAL1        0.0019
    179 N          28.9280   59.8740   24.9870 N.3     1  UNL1       -0.1245
    180 CA         27.6160   59.3680   24.9880 C.3     1  UNL1        0.1561
    181 C          27.5030   58.0430   25.7340 C.2     1  UNL1        0.2260
    182 O          26.5380   57.8000   26.4410 O.2     1  UNL1       -0.2867
    183 C          27.2010   59.0350   23.5720 C.3     1  UNL1        0.0271
    184 C          26.9490   60.1800   22.7890 C.3     1  UNL1        0.0027
    185 C          26.0340   60.9840   22.6030 C.3     1  UNL1        0.0078
    186 C          27.5410   60.8660   21.9860 C.3     1  UNL1        0.0078
    187 C          27.2290   62.0410   21.1900 C.3     1  UNL1        0.0645
    188 C          25.8980   62.1260   21.6790 C.3     1  UNL1        0.0645
    189 C          26.4200   62.8000   20.8620 C.2     1  UNL1        0.1506
    190 O          26.2540   63.7630   20.1260 O.2     1  UNL1       -0.2961
@<TRIPOS>BOND
     1     1     2    1
     2     2     3    1
     3     3     4    2
     4     3     5   am
     5     5     6    1
     6     5    11    1
     7     6     7    1
     8     6     9    1
     9     7    12   am
    10     7     8    2
    11     9    10    1
    12    10    11    1
    13    12    13    1
    14    13    16    1
    15    13    14    1
    16    14    15    2
    17    14    20   am
    18    16    17    1
    19    17    18    2
    20    17    19   am
    21    20    21    1
    22    21    22    1
    23    21    24    1
    24    22    23    2
    25    24    25    1
    26    25    27    1
    27    25    26    1
    28    28    29    1
    29    29    30    1
    30    29    32    1
    31    30    31    2
    32    32    33    1
    33    33    35    1
    34    33    34    1
    35    36    37    1
    36    37    38    1
    37    37    40    1
    38    38    39    2
    39    40    41    1
    40    41    42    2
    41    42    43    1
    42    43    44    2
    43    44    45    1
    44    44    46    1
    45    47    48    1
    46    48    49    1
    47    48    51    1
    48    49    50    2
    49    49    55   am
    50    51    52    1
    51    52    54   am
    52    52    53    2
    53    55    56    1
    54    56    57    1
    55    56    59    1
    56    57    58    2
    57    57    60   am
    58    60    61    1
    59    61    62    1
    60    62    64   am
    61    62    63    2
    62    64    65    1
    63    65    66    1
    64    66    68   am
    65    66    67    2
    66    68    69    1
    67    69    72    1
    68    69    70    1
    69    70    76   am
    70    70    71    2
    71    72    73    1
    72    73    75    1
    73    73    74    1
    74    76    77    1
    75    77    80    1
    76    77    78    1
    77    78    83   am
    78    78    79    2
    79    80    81    1
    80    80    82    1
    81    83    84    1
    82    84    87    1
    83    84    85    1
    84    85    86    2
    85    87    88    1
    86    88    90   ar
    87    88    89   ar
    88    89    91   ar
    89    90    92   ar
    90    91    92   ar
    91    93    94    1
    92    94    95    1
    93    94    97    1
    94    95    96    2
    95    95   100   am
    96    97    98    1
    97    97    99    1
    98   100   101    1
    99   101   102    1
   100   101   104    1
   101   102   110   am
   102   102   103    2
   103   104   105    1
   104   105   106    2
   105   105   107    1
   106   106   108    1
   107   107   109    1
   108   108   109    2
   109   110   111    1
   110   111   114    1
   111   111   112    1
   112   112   118   am
   113   112   113    2
   114   114   116    1
   115   114   115    1
   116   115   117    1
   117   118   119    1
   118   119   122    1
   119   119   120    1
   120   120   124   am
   121   120   121    2
   122   122   123    1
   123   124   125    1
   124   125   126    1
   125   125   128    1
   126   126   127    2
   127   126   132   am
   128   128   129    1
   129   129   130    2
   130   129   131   am
   131   132   133    1
   132   133   136    1
   133   133   134    1
   134   134   135    2
   135   136   137    1
   136   136   138    1
   137   139   140    1
   138   140   143    1
   139   140   141    1
   140   141   142    2
   141   143   144    1
   142   144   145    1
   143   145   146    1
   144   146   147    2
   145   147   149    1
   146   147   148    1
   147   150   151    1
   148   151   154    1
   149   151   152    1
   150   152   161   am
   151   152   153    2
   152   154   155    1
   153   155   157   ar
   154   155   156   ar
   155   156   158   ar
   156   157   159   ar
   157   158   160   ar
   158   159   160   ar
   159   161   162    1
   160   162   165    1
   161   162   163    1
   162   163   164    2
   163   165   166    1
   164   166   167    1
   165   167   168    1
   166   168   169    2
   167   169   171    1
   168   169   170    1
   169   172   173    1
   170   173   174    1
   171   173   176    1
   172   174   175    2
   173   176   177    1
   174   176   178    1
   175   179   180    1
   176   180   183    1
   177   180   181    1
   178   181   182    2
   179   183   184    1
   180   184   186    1
   181   184   185    1
   182   185   188    1
   183   185   186    1
   184   186   187    1
   185   187   189    1
   186   187   188    1
   187   188   189    1
   188   189   190    2
