@<TRIPOS>MOLECULE
./1x7p/protein.pdb
 210 204 0 0 0
SMALL
GASTEIGER

@<TRIPOS>ATOM
      1 N          40.2460   21.1070   84.4480 N.3     1  PHE1       -0.1241
      2 CA         40.2270   19.7690   83.8760 C.3     1  PHE1        0.1605
      3 C          39.1150   19.8010   82.8350 C.2     1  PHE1        0.2264
      4 O          37.9430   20.0130   83.1630 O.2     1  PHE1       -0.2867
      5 CB         39.9170   18.7380   84.9570 C.3     1  PHE1        0.0534
      6 CG         40.2490   17.3120   84.5910 C.ar    1  PHE1       -0.0203
      7 CD1        40.8720   16.9700   83.3840 C.ar    1  PHE1       -0.0042
      8 CD2        39.9610   16.3030   85.4830 C.ar    1  PHE1       -0.0042
      9 CE1        41.1790   15.6170   83.0870 C.ar    1  PHE1       -0.0003
     10 CE2        40.2620   14.9950   85.2000 C.ar    1  PHE1       -0.0003
     11 CZ         40.8640   14.6420   83.9930 C.ar    1  PHE1       -0.0000
     12 N          48.5800   22.0180   78.8840 N.3     1  THR1       -0.1203
     13 CA         49.5190   20.9140   79.0400 C.3     1  THR1        0.1994
     14 C          49.3090   19.9570   77.9090 C.2     1  THR1        0.2618
     15 O          48.1770   19.6570   77.5330 O.2     1  THR1       -0.2717
     16 CB         49.3440   20.2040   80.3700 C.3     1  THR1        0.1784
     17 OG1        48.0260   19.6620   80.4740 O.3     1  THR1       -0.2211
     18 CG2        49.4500   21.2070   81.5270 C.3     1  THR1        0.0376
     19 N          50.4140   19.5040   77.3460 N.am    2  ASP2       -0.1961
     20 CA         50.3750   18.6430   76.1990 C.3     2  ASP2        0.1783
     21 C          51.7200   17.9580   76.0060 C.2     2  ASP2        0.2620
     22 O          52.7280   18.5630   76.1870 O.2     2  ASP2       -0.2715
     23 CB         50.0280   19.4580   74.9640 C.3     2  ASP2        0.0728
     24 CG         49.6660   18.5840   73.8080 C.2     2  ASP2        0.0526
     25 OD2        48.5600   17.9830   73.8780 O.co2   2  ASP2       -0.5491
     26 OD1        50.4180   18.3980   72.8220 O.co2   2  ASP2       -0.5491
     27 N          51.7160   16.6950   75.6210 N.am    3  GLU3       -0.1963
     28 CA         52.9510   15.9580   75.3250 C.3     3  GLU3        0.1731
     29 C          53.8380   16.6270   74.2700 C.2     3  GLU3        0.2616
     30 O          55.0480   16.4890   74.3030 O.2     3  GLU3       -0.2715
     31 CB         52.6190   14.5380   74.8620 C.3     3  GLU3        0.0370
     32 CG         51.7970   14.4890   73.5890 C.3     3  GLU3        0.0440
     33 CD         51.3890   13.0880   73.2120 C.2     3  GLU3        0.0504
     34 OE2        50.3120   12.6280   73.6840 O.co2   3  GLU3       -0.5492
     35 OE1        52.1470   12.4680   72.4290 O.co2   3  GLU3       -0.5492
     36 N          53.2070   17.3270   73.3380 N.am    4  HIS4       -0.1973
     37 CA         53.8740   18.0100   72.2320 C.3     4  HIS4        0.1656
     38 C          53.8310   19.5180   72.4430 C.2     4  HIS4        0.2291
     39 O          53.6860   20.2670   71.4940 O.2     4  HIS4       -0.2864
     40 CB         53.1550   17.6860   70.9200 C.3     4  HIS4        0.0771
     41 CG         53.4420   16.3210   70.3800 C.ar    4  HIS4        0.0820
     42 ND1        53.9960   15.3160   71.1410 N.ar    4  HIS4       -0.2267
     43 CD2        53.2710   15.8030   69.1410 C.ar    4  HIS4        0.1154
     44 CE1        54.1410   14.2320   70.4010 C.ar    4  HIS4        0.1986
     45 NE2        53.7200   14.5040   69.1790 N.ar    4  HIS4       -0.2212
     46 N          45.8550   24.0070   82.6480 N.3     1  LEU1       -0.1231
     47 CA         44.8180   23.2710   81.9310 C.3     1  LEU1        0.1693
     48 C          45.2440   21.8270   81.6330 C.2     1  LEU1        0.2592
     49 O          46.2790   21.5980   81.0000 O.2     1  LEU1       -0.2718
     50 CB         44.4760   23.9910   80.6250 C.3     1  LEU1        0.0284
     51 CG         44.3640   25.5240   80.6510 C.3     1  LEU1        0.0019
     52 CD1        43.8180   26.0240   79.3460 C.3     1  LEU1        0.0001
     53 CD2        43.4800   26.0320   81.7720 C.3     1  LEU1        0.0001
     54 N          44.4440   20.8660   82.1040 N.am    2  ILE2       -0.1966
     55 CA         44.7040   19.4440   81.9240 C.3     2  ILE2        0.1727
     56 C          43.6210   18.9100   81.0000 C.2     2  ILE2        0.2617
     57 O          42.4390   19.1340   81.2350 O.2     2  ILE2       -0.2715
     58 CB         44.6760   18.6820   83.2700 C.3     2  ILE2        0.0290
     59 CG1        46.0030   18.7890   84.0130 C.3     2  ILE2        0.0022
     60 CG2        44.5030   17.1700   83.0270 C.3     2  ILE2        0.0023
     61 CD1        46.5080   20.1180   84.2290 C.3     2  ILE2        0.0001
     62 N          44.0200   18.2130   79.9400 N.am    3  GLY3       -0.1940
     63 CA         43.0680   17.7370   78.9500 C.3     3  GLY3        0.2014
     64 C          42.4730   16.3990   79.3400 C.2     3  GLY3        0.2639
     65 O          42.8220   15.8140   80.3720 O.2     3  GLY3       -0.2714
     66 N          41.5810   15.8920   78.5030 N.am    4  ASN4       -0.1958
     67 CA         40.9240   14.6320   78.8040 C.3     4  ASN4        0.1819
     68 C          41.6730   13.4510   78.1880 C.2     4  ASN4        0.2621
     69 O          42.5180   13.6100   77.3270 O.2     4  ASN4       -0.2715
     70 CB         39.4210   14.7080   78.4500 C.3     4  ASN4        0.1195
     71 CG         39.0270   13.8410   77.2770 C.2     4  ASN4        0.2630
     72 OD1        39.6230   13.8930   76.2430 O.2     4  ASN4       -0.2716
     73 ND2        38.0110   13.0290   77.4640 N.am    4  ASN4       -0.0877
     74 N          41.3270   12.2700   78.6640 N.am    5  GLU5       -0.1963
     75 CA         42.0680   11.0310   78.4620 C.3     5  GLU5        0.1731
     76 C          42.2230   10.6270   76.9950 C.2     5  GLU5        0.2617
     77 O          43.2890   10.2060   76.5850 O.2     5  GLU5       -0.2715
     78 CB         41.3640    9.9060   79.2470 C.3     5  GLU5        0.0370
     79 CG         41.0890   10.2400   80.7460 C.3     5  GLU5        0.0440
     80 CD         39.8900   11.2010   81.0340 C.2     5  GLU5        0.0504
     81 OE1        38.9640   11.3440   80.2070 O.co2   5  GLU5       -0.5492
     82 OE2        39.8710   11.8300   82.0840 O.co2   5  GLU5       -0.5492
     83 N          41.1670   10.7680   76.2010 N.am    6  THR6       -0.1937
     84 CA         41.2030   10.3100   74.8140 C.3     6  THR6        0.2028
     85 C          41.4030   11.4390   73.7760 C.2     6  THR6        0.2642
     86 O          41.9240   11.1830   72.7120 O.2     6  THR6       -0.2714
     87 CB         39.9490    9.4200   74.4500 C.3     6  THR6        0.1808
     88 OG1        39.2940    9.9450   73.2920 O.3     6  THR6       -0.2208
     89 CG2        38.8340    9.4160   75.5390 C.3     6  THR6        0.0379
     90 N          41.0080   12.6710   74.0860 N.am    7  ALA7       -0.1963
     91 CA         41.1070   13.8070   73.1460 C.3     7  ALA7        0.1728
     92 C          42.1510   14.8820   73.5010 C.2     7  ALA7        0.2617
     93 O          42.5280   15.6890   72.6510 O.2     7  ALA7       -0.2715
     94 CB         39.7420   14.4730   72.9970 C.3     7  ALA7        0.0334
     95 N          42.6150   14.9120   74.7380 N.am    8  GLY8       -0.1940
     96 CA         43.4840   15.9860   75.1890 C.3     8  GLY8        0.2014
     97 C          42.6720   17.2530   75.3890 C.2     8  GLY8        0.2638
     98 O          41.4460   17.2090   75.4450 O.2     8  GLY8       -0.2714
     99 N          43.3440   18.3920   75.4980 N.am    9  LEU9       -0.1977
    100 CA         42.6550   19.6750   75.5380 C.3     9  LEU9        0.1596
    101 C          41.9190   19.9260   74.2390 C.2     9  LEU9        0.2287
    102 O          42.4250   19.6020   73.1640 O.2     9  LEU9       -0.2864
    103 CB         43.6570   20.7960   75.7520 C.3     9  LEU9        0.0297
    104 CG         44.1660   20.8780   77.1700 C.3     9  LEU9        0.0022
    105 CD1        45.3430   21.8390   77.2210 C.3     9  LEU9        0.0001
    106 CD2        43.0480   21.3060   78.1240 C.3     9  LEU9        0.0001
    107 N          43.1840   25.3560   73.6470 N.3     1  ARG1       -0.1245
    108 CA         44.5000   25.5660   73.0160 C.3     1  ARG1        0.1563
    109 C          44.6440   26.9630   72.3810 C.2     1  ARG1        0.2260
    110 O          45.7310   27.5220   72.3120 O.2     1  ARG1       -0.2867
    111 CB         44.7310   24.5140   71.9300 C.3     1  ARG1        0.0307
    112 CG         44.9330   23.0890   72.4390 C.3     1  ARG1        0.0489
    113 CD         44.9140   22.1000   71.2880 C.3     1  ARG1        0.2205
    114 NE         44.8050   20.7090   71.7070 N.pl3   1  ARG1       -0.0865
    115 CZ         45.8360   19.9030   71.9850 C.cat   1  ARG1        0.5346
    116 NH1        47.0970   20.3240   71.9020 N.pl3   1  ARG1        0.1354
    117 NH2        45.5920   18.6560   72.3590 N.pl3   1  ARG1        0.1354
    118 N          52.9350   23.6730   77.8660 N.3     1  VAL1       -0.1231
    119 CA         54.0780   22.9850   78.4580 C.3     1  VAL1        0.1692
    120 C          53.9310   21.4580   78.4220 C.2     1  VAL1        0.2593
    121 O          52.8230   20.9030   78.3560 O.2     1  VAL1       -0.2718
    122 CB         54.3380   23.4310   79.9020 C.3     1  VAL1        0.0266
    123 CG1        54.4260   24.9450   79.9780 C.3     1  VAL1        0.0020
    124 CG2        53.2770   22.9420   80.8200 C.3     1  VAL1        0.0020
    125 N          55.0770   20.7900   78.5030 N.am    2  SER2       -0.1938
    126 CA         55.1430   19.3650   78.2900 C.3     2  SER2        0.2055
    127 C          56.1410   18.7020   79.2190 C.2     2  SER2        0.2642
    128 O          57.2520   19.2050   79.4120 O.2     2  SER2       -0.2714
    129 CB         55.5470   19.0980   76.8320 C.3     2  SER2        0.2130
    130 OG         56.9360   19.3080   76.6720 O.3     2  SER2       -0.2179
    131 N          55.7170   17.5710   79.7790 N.am    3  ILE3       -0.1977
    132 CA         56.6240   16.5770   80.3310 C.3     3  ILE3        0.1596
    133 C          57.3030   15.8490   79.1840 C.2     3  ILE3        0.2287
    134 O          56.6220   15.2040   78.4110 O.2     3  ILE3       -0.2864
    135 CB         55.8610   15.5300   81.1910 C.3     3  ILE3        0.0276
    136 CG1        54.9350   16.1850   82.2010 C.3     3  ILE3        0.0022
    137 CG2        56.8200   14.6310   81.9330 C.3     3  ILE3        0.0022
    138 CD1        55.5990   17.2880   82.9540 C.3     3  ILE3        0.0001
    139 N          58.9950   12.8100   77.1820 N.3     1  MET1       -0.1245
    140 CA         58.7290   11.3780   77.2450 C.3     1  MET1        0.1570
    141 C          59.8660   10.5670   76.6220 C.2     1  MET1        0.2261
    142 O          60.7070   11.1040   75.9070 O.2     1  MET1       -0.2867
    143 CB         57.3970   11.0010   76.5540 C.3     1  MET1        0.0387
    144 CG         56.2030   11.9480   76.7550 C.3     1  MET1        0.0595
    145 SD         54.9210   11.3450   77.8840 S.3     1  MET1       -0.1393
    146 CE         55.8530   11.4370   79.4030 C.3     1  MET1        0.0692
    147 N          54.5520    5.5120   74.6170 N.3     1  SER1       -0.1202
    148 CA         53.6790    5.7950   75.7460 C.3     1  SER1        0.2020
    149 C          53.2950    7.2760   75.7940 C.2     1  SER1        0.2619
    150 O          53.8670    8.0800   75.0640 O.2     1  SER1       -0.2717
    151 CB         54.2920    5.3330   77.0790 C.3     1  SER1        0.2103
    152 OG         53.2940    5.2620   78.1220 O.3     1  SER1       -0.2182
    153 N          52.2560    7.5690   76.5930 N.am    2  SER2       -0.1937
    154 CA         51.8390    8.9210   77.0410 C.3     2  SER2        0.2055
    155 C          51.3980    8.7890   78.5180 C.2     2  SER2        0.2643
    156 O          51.4680    7.6890   79.0520 O.2     2  SER2       -0.2714
    157 CB         50.6830    9.4470   76.1940 C.3     2  SER2        0.2130
    158 OG         50.1350   10.6510   76.7310 O.3     2  SER2       -0.2179
    159 N          50.9800    9.8730   79.1930 N.am    3  LEU3       -0.1963
    160 CA         50.6020    9.7850   80.6220 C.3     3  LEU3        0.1728
    161 C          49.0910    9.9440   80.8810 C.2     3  LEU3        0.2616
    162 O          48.4180   10.7000   80.1960 O.2     3  LEU3       -0.2715
    163 CB         51.3720   10.8120   81.4660 C.3     3  LEU3        0.0311
    164 CG         52.9110   10.7780   81.5560 C.3     3  LEU3        0.0022
    165 CD2        53.4370   11.9870   82.3520 C.3     3  LEU3        0.0001
    166 CD1        53.4180    9.5060   82.1930 C.3     3  LEU3        0.0001
    167 N          48.5740    9.1940   81.8630 N.am    4  ASN4       -0.1958
    168 CA         47.2340    9.4250   82.4450 C.3     4  ASN4        0.1819
    169 C          47.1400   10.8830   82.9130 C.2     4  ASN4        0.2621
    170 O          48.1410   11.4440   83.3230 O.2     4  ASN4       -0.2715
    171 CB         46.9830    8.4530   83.6110 C.3     4  ASN4        0.1195
    172 CG         45.8350    8.8700   84.5040 C.2     4  ASN4        0.2630
    173 OD1        44.6870    8.4610   84.3080 O.2     4  ASN4       -0.2716
    174 ND2        46.1400    9.6740   85.5160 N.am    4  ASN4       -0.0877
    175 N          45.9580   11.4920   82.8360 N.am    5  ALA5       -0.1963
    176 CA         45.8150   12.9290   83.1110 C.3     5  ALA5        0.1728
    177 C          46.1140   13.3220   84.5660 C.2     5  ALA5        0.2616
    178 O          46.6620   14.3930   84.8060 O.2     5  ALA5       -0.2715
    179 CB         44.3980   13.4380   82.7130 C.3     5  ALA5        0.0334
    180 N          45.6990   12.4950   85.5280 N.am    6  ALA6       -0.1963
    181 CA         45.9450   12.7880   86.9370 C.3     6  ALA6        0.1728
    182 C          47.4170   12.6700   87.2640 C.2     6  ALA6        0.2616
    183 O          47.9480   13.4880   88.0250 O.2     6  ALA6       -0.2715
    184 CB         45.1130   11.8720   87.8640 C.3     6  ALA6        0.0334
    185 N          48.0670   11.6540   86.7070 N.am    7  ASN7       -0.1958
    186 CA         49.4920   11.4520   86.8990 C.3     7  ASN7        0.1819
    187 C          50.2440   12.6220   86.3290 C.2     7  ASN7        0.2621
    188 O          51.1470   13.1200   86.9580 O.2     7  ASN7       -0.2715
    189 CB         49.9720   10.1640   86.2230 C.3     7  ASN7        0.1195
    190 CG         49.4400    8.9060   86.9040 C.2     7  ASN7        0.2630
    191 OD1        49.2090    7.8850   86.2540 O.2     7  ASN7       -0.2716
    192 ND2        49.2330    8.9820   88.2100 N.am    7  ASN7       -0.0877
    193 N          49.8350   13.0910   85.1480 N.am    8  ALA8       -0.1963
    194 CA         50.5290   14.1760   84.4840 C.3     8  ALA8        0.1728
    195 C          50.3600   15.4240   85.3030 C.2     8  ALA8        0.2616
    196 O          51.3020   16.1880   85.4810 O.2     8  ALA8       -0.2715
    197 CB         49.9920   14.3950   83.0750 C.3     8  ALA8        0.0334
    198 N          49.1520   15.6130   85.8140 N.am    9  ALA9       -0.1977
    199 CA         48.8080   16.8160   86.5200 C.3     9  ALA9        0.1597
    200 C          49.5610   16.8660   87.8420 C.2     9  ALA9        0.2287
    201 O          49.9580   17.9360   88.3110 O.2     9  ALA9       -0.2864
    202 CB         47.3280   16.8450   86.7600 C.3     9  ALA9        0.0319
    203 N          53.2230   17.9510   87.2460 N.3     1  ILE1       -0.1245
    204 CA         53.3990   19.3520   86.8850 C.3     1  ILE1        0.1561
    205 C          53.0960   20.2620   88.0680 C.2     1  ILE1        0.2260
    206 O          53.7760   21.2410   88.2810 O.2     1  ILE1       -0.2867
    207 CB         52.5400   19.7150   85.6520 C.3     1  ILE1        0.0252
    208 CG1        52.9970   18.9240   84.4070 C.3     1  ILE1        0.0019
    209 CG2        52.6350   21.1880   85.3520 C.3     1  ILE1        0.0019
    210 CD1        51.9910   18.9020   83.2470 C.3     1  ILE1        0.0001
@<TRIPOS>UNITY_ATOM_ATTR
25 1
charge -1
34 1
charge -1
81 1
charge -1
@<TRIPOS>BOND
     1     1     2    1
     2     2     3    1
     3     2     5    1
     4     3     4    2
     5     5     6    1
     6     6     7   ar
     7     6     8   ar
     8     7     9   ar
     9     8    10   ar
    10     9    11   ar
    11    10    11   ar
    12    12    13    1
    13    13    14    1
    14    13    16    1
    15    14    19   am
    16    14    15    2
    17    16    17    1
    18    16    18    1
    19    19    20    1
    20    20    23    1
    21    20    21    1
    22    21    27   am
    23    21    22    2
    24    23    24    1
    25    24    26   ar
    26    24    25   ar
    27    27    28    1
    28    28    29    1
    29    28    31    1
    30    29    36   am
    31    29    30    2
    32    31    32    1
    33    32    33    1
    34    33    35   ar
    35    33    34   ar
    36    36    37    1
    37    37    40    1
    38    37    38    1
    39    38    39    2
    40    40    41    1
    41    41    43   ar
    42    41    42   ar
    43    42    44   ar
    44    43    45   ar
    45    44    45   ar
    46    46    47    1
    47    47    50    1
    48    47    48    1
    49    48    49    2
    50    48    54   am
    51    50    51    1
    52    51    52    1
    53    51    53    1
    54    54    55    1
    55    55    56    1
    56    55    58    1
    57    56    62   am
    58    56    57    2
    59    58    60    1
    60    58    59    1
    61    59    61    1
    62    62    63    1
    63    63    64    1
    64    64    66   am
    65    64    65    2
    66    66    67    1
    67    67    68    1
    68    67    70    1
    69    68    69    2
    70    68    74   am
    71    70    71    1
    72    71    72    2
    73    71    73   am
    74    74    75    1
    75    75    76    1
    76    75    78    1
    77    76    83   am
    78    76    77    2
    79    78    79    1
    80    79    80    1
    81    80    81   ar
    82    80    82   ar
    83    83    84    1
    84    84    85    1
    85    84    87    1
    86    85    86    2
    87    85    90   am
    88    87    88    1
    89    87    89    1
    90    90    91    1
    91    91    94    1
    92    91    92    1
    93    92    93    2
    94    92    95   am
    95    95    96    1
    96    96    97    1
    97    97    98    2
    98    97    99   am
    99    99   100    1
   100   100   101    1
   101   100   103    1
   102   101   102    2
   103   103   104    1
   104   104   105    1
   105   104   106    1
   106   107   108    1
   107   108   111    1
   108   108   109    1
   109   109   110    2
   110   111   112    1
   111   112   113    1
   112   113   114    1
   113   114   115    2
   114   115   116    1
   115   115   117    1
   116   118   119    1
   117   119   120    1
   118   119   122    1
   119   120   121    2
   120   120   125   am
   121   122   123    1
   122   122   124    1
   123   125   126    1
   124   126   129    1
   125   126   127    1
   126   127   128    2
   127   127   131   am
   128   129   130    1
   129   131   132    1
   130   132   133    1
   131   132   135    1
   132   133   134    2
   133   135   137    1
   134   135   136    1
   135   136   138    1
   136   139   140    1
   137   140   143    1
   138   140   141    1
   139   141   142    2
   140   143   144    1
   141   144   145    1
   142   145   146    1
   143   147   148    1
   144   148   149    1
   145   148   151    1
   146   149   150    2
   147   149   153   am
   148   151   152    1
   149   153   154    1
   150   154   157    1
   151   154   155    1
   152   155   156    2
   153   155   159   am
   154   157   158    1
   155   159   160    1
   156   160   161    1
   157   160   163    1
   158   161   162    2
   159   161   167   am
   160   163   164    1
   161   164   166    1
   162   164   165    1
   163   167   168    1
   164   168   169    1
   165   168   171    1
   166   169   175   am
   167   169   170    2
   168   171   172    1
   169   172   173    2
   170   172   174   am
   171   175   176    1
   172   176   179    1
   173   176   177    1
   174   177   178    2
   175   177   180   am
   176   180   181    1
   177   181   182    1
   178   181   184    1
   179   182   185   am
   180   182   183    2
   181   185   186    1
   182   186   189    1
   183   186   187    1
   184   187   193   am
   185   187   188    2
   186   189   190    1
   187   190   191    2
   188   190   192   am
   189   193   194    1
   190   194   197    1
   191   194   195    1
   192   195   196    2
   193   195   198   am
   194   198   199    1
   195   199   202    1
   196   199   200    1
   197   200   201    2
   198   203   204    1
   199   204   207    1
   200   204   205    1
   201   205   206    2
   202   207   208    1
   203   207   209    1
   204   208   210    1
