@<TRIPOS>MOLECULE
./1x7p/protein.pdb
 219 218 0 0 0
SMALL
GASTEIGER

@<TRIPOS>ATOM
      1 N          25.8270   11.9490   97.9760 N.3     1  LEU1       -0.1231
      2 CA         26.0910   10.9570   99.0040 C.3     1  LEU1        0.1693
      3 C          27.6030   10.9360   99.3530 C.2     1  LEU1        0.2592
      4 O          28.4750   10.8590   98.4740 O.2     1  LEU1       -0.2718
      5 CB         25.6170    9.5820   98.5230 C.3     1  LEU1        0.0284
      6 CG         24.2380    9.0040   98.9290 C.3     1  LEU1        0.0019
      7 CD2        23.1880   10.0140   99.3760 C.3     1  LEU1        0.0001
      8 CD1        23.6680    8.1440   97.8130 C.3     1  LEU1        0.0001
      9 N          27.9050   11.0130  100.6480 N.am    2  VAL2       -0.1966
     10 CA         29.2650   10.8130  101.1260 C.3     2  VAL2        0.1727
     11 C          29.3190    9.5430  101.9680 C.2     2  VAL2        0.2616
     12 O          28.5680    9.3900  102.9200 O.2     2  VAL2       -0.2715
     13 CB         29.7760   12.0310  101.9130 C.3     2  VAL2        0.0290
     14 CG2        31.2080   11.8180  102.3410 C.3     2  VAL2        0.0023
     15 CG1        29.6740   13.2820  101.0600 C.3     2  VAL2        0.0023
     16 N          30.2210    8.6340  101.6140 N.am    3  MET3       -0.1963
     17 CA         30.2260    7.2960  102.1980 C.3     3  MET3        0.1736
     18 C          31.4810    7.0720  103.0460 C.2     3  MET3        0.2617
     19 O          32.6110    7.1880  102.5570 O.2     3  MET3       -0.2715
     20 CB         30.0820    6.2440  101.0880 C.3     3  MET3        0.0427
     21 CG         28.9930    6.6260  100.0550 C.3     3  MET3        0.0599
     22 SD         28.8770    5.6490   98.5120 S.3     3  MET3       -0.1393
     23 CE         30.5060    5.4830   98.0740 C.3     3  MET3        0.0692
     24 N          31.2650    6.7820  104.3300 N.am    4  GLY4       -0.1940
     25 CA         32.3440    6.4910  105.2600 C.3     4  GLY4        0.2014
     26 C          32.5080    7.5390  106.3470 C.2     4  GLY4        0.2639
     27 O          32.4270    8.7350  106.0990 O.2     4  GLY4       -0.2714
     28 N          32.7640    7.0680  107.5610 N.am    5  VAL5       -0.1963
     29 CA         32.9970    7.9330  108.7220 C.3     5  VAL5        0.1727
     30 C          34.0510    9.0340  108.4980 C.2     5  VAL5        0.2616
     31 O          33.8590   10.1740  108.9270 O.2     5  VAL5       -0.2715
     32 CB         33.3830    7.0990  109.9760 C.3     5  VAL5        0.0290
     33 CG2        32.1450    6.4200  110.5570 C.3     5  VAL5        0.0023
     34 CG1        34.4380    6.0750  109.6490 C.3     5  VAL5        0.0023
     35 N          35.1370    8.6950  107.8100 N.am    6  ARG6       -0.1964
     36 CA         36.2350    9.6280  107.6170 C.3     6  ARG6        0.1714
     37 C          35.8930   10.7810  106.6850 C.2     6  ARG6        0.2458
     38 O          36.0820   11.9250  107.0830 O.2     6  ARG6       -0.2730
     39 CB         37.5020    8.9080  107.1450 C.3     6  ARG6        0.0347
     40 CG         38.5990    9.8360  106.6830 C.3     6  ARG6        0.0492
     41 CD         39.9590    9.1730  106.6060 C.3     6  ARG6        0.2205
     42 NE         41.0300   10.1580  106.4130 N.pl3   6  ARG6       -0.0865
     43 CZ         41.2550   10.8380  105.2800 C.cat   6  ARG6        0.5346
     44 NH1        40.4840   10.6600  104.2000 N.pl3   6  ARG6        0.1354
     45 NH2        42.2590   11.7100  105.2280 N.pl3   6  ARG6        0.1354
     46 N          35.4630   10.5170  105.4420 N.am    7  PRO7       -0.2716
     47 CA         35.0380   11.6140  104.5560 C.3     7  PRO7        0.1536
     48 C          33.8590   12.4080  105.1060 C.2     7  PRO7        0.2598
     49 O          33.8230   13.6210  104.8810 O.2     7  PRO7       -0.2715
     50 CB         34.6800   10.9200  103.2270 C.3     7  PRO7        0.0310
     51 CG         34.7250    9.4690  103.4680 C.3     7  PRO7        0.0237
     52 CD         35.4620    9.2160  104.7420 C.3     7  PRO7        0.0939
     53 N          32.9180   11.7700  105.8100 N.am    8  ILE8       -0.1978
     54 CA         31.8350   12.5210  106.4390 C.3     8  ILE8        0.1596
     55 C          32.4070   13.4500  107.5230 C.2     8  ILE8        0.2287
     56 O          31.8840   14.5280  107.7610 O.2     8  ILE8       -0.2864
     57 CB         30.7510   11.5830  107.0490 C.3     8  ILE8        0.0276
     58 CG1        30.0270   10.7850  105.9660 C.3     8  ILE8        0.0022
     59 CG2        29.7230   12.3960  107.8320 C.3     8  ILE8        0.0022
     60 CD1        29.2970    9.5600  106.4810 C.3     8  ILE8        0.0001
     61 N          35.3690   15.0060  107.5130 N.3     1  LEU1       -0.1245
     62 CA         36.0230   16.1220  106.8540 C.3     1  LEU1        0.1561
     63 C          34.9740   17.0710  106.2530 C.2     1  LEU1        0.2260
     64 O          35.1950   18.2790  106.1550 O.2     1  LEU1       -0.2867
     65 CB         37.0000   15.6000  105.7880 C.3     1  LEU1        0.0270
     66 CG         38.1160   14.7110  106.3650 C.3     1  LEU1        0.0019
     67 CD1        38.7960   13.9090  105.2820 C.3     1  LEU1        0.0001
     68 CD2        39.1450   15.5160  107.1370 C.3     1  LEU1        0.0001
     69 N          33.8100    5.4900  116.2080 N.3     1  TRP1       -0.1241
     70 CA         33.7770    6.6460  115.3210 C.3     1  TRP1        0.1602
     71 C          32.3510    6.9600  114.8510 C.2     1  TRP1        0.2264
     72 O          31.9140    8.1040  114.8940 O.2     1  TRP1       -0.2867
     73 CB         34.6950    6.4100  114.1210 C.3     1  TRP1        0.0510
     74 CG         35.1170    7.6550  113.4090 C.2     1  TRP1       -0.0168
     75 CD1        34.5070    8.8780  113.4410 C.3     1  TRP1        0.1477
     76 CD2        36.2480    7.7970  112.5520 C.ar    1  TRP1        0.0113
     77 NE1        35.1820    9.7700  112.6460 N.2     1  TRP1       -0.2659
     78 CE2        36.2600    9.1380  112.0890 C.ar    1  TRP1        0.0758
     79 CE3        37.2540    6.9240  112.1150 C.ar    1  TRP1        0.0009
     80 CZ2        37.2340    9.6280  111.2300 C.ar    1  TRP1        0.0187
     81 CZ3        38.2220    7.4070  111.2580 C.ar    1  TRP1        0.0001
     82 CH2        38.2050    8.7550  110.8210 C.ar    1  TRP1        0.0015
     83 N          25.5080    1.9760   97.3140 N.3     1  LEU1       -0.1231
     84 CA         26.8040    1.8340   96.6710 C.3     1  LEU1        0.1693
     85 C          27.8740    1.7650   97.7690 C.2     1  LEU1        0.2593
     86 O          27.7560    2.3730   98.8450 O.2     1  LEU1       -0.2718
     87 CB         27.0820    3.0030   95.6980 C.3     1  LEU1        0.0284
     88 CG         28.2580    2.8840   94.6970 C.3     1  LEU1        0.0019
     89 CD2        28.4170    1.4370   94.1510 C.3     1  LEU1        0.0001
     90 CD1        28.1290    3.8830   93.5230 C.3     1  LEU1        0.0001
     91 N          28.8720    0.9440   97.5020 N.am    2  GLY2       -0.1942
     92 CA         30.1670    1.0540   98.1330 C.3     2  GLY2        0.2014
     93 C          31.0940    0.7540   96.9820 C.2     2  GLY2        0.2638
     94 O          31.6810    1.6630   96.3920 O.2     2  GLY2       -0.2714
     95 N          31.2040   -0.5340   96.6560 N.am    3  GLU3       -0.1977
     96 CA         31.8970   -0.9870   95.4450 C.3     3  GLU3        0.1600
     97 C          31.3390   -2.3600   95.0020 C.2     3  GLU3        0.2287
     98 O          32.0460   -3.1620   94.3930 O.2     3  GLU3       -0.2864
     99 CB         33.4300   -1.0490   95.6900 C.3     3  GLU3        0.0356
    100 CG         34.2190    0.2050   95.2620 C.3     3  GLU3        0.0439
    101 CD         34.9240    0.9100   96.4230 C.2     3  GLU3        0.0504
    102 OE1        36.1750    0.9420   96.4450 O.co2   3  GLU3       -0.5492
    103 OE2        34.2300    1.4350   97.3200 O.co2   3  GLU3       -0.5492
    104 N          33.7810   -4.1540   97.6290 N.3     1  GLU1       -0.1231
    105 CA         34.7140   -3.6470   98.6280 C.3     1  GLU1        0.1697
    106 C          34.0160   -2.6840   99.5930 C.2     1  GLU1        0.2592
    107 O          33.8220   -1.5110   99.2760 O.2     1  GLU1       -0.2718
    108 CB         35.8990   -2.9420   97.9390 C.3     1  GLU1        0.0343
    109 CG         37.1200   -3.8350   97.7120 C.3     1  GLU1        0.0437
    110 CD         37.9680   -3.4020   96.5230 C.2     1  GLU1        0.0504
    111 OE1        38.4450   -4.2870   95.7790 O.co2   1  GLU1       -0.5492
    112 OE2        38.1520   -2.1770   96.3280 O.co2   1  GLU1       -0.5492
    113 N          33.6550   -3.0300  100.7840 N.am    2  ALA2       -0.1966
    114 CA         33.2640   -2.1090  101.8560 C.3     2  ALA2        0.1713
    115 C          31.7830   -1.6900  101.8580 C.2     2  ALA2        0.2458
    116 O          31.3990   -0.7460  101.1500 O.2     2  ALA2       -0.2730
    117 CB         34.1800   -0.8280  101.8550 C.3     2  ALA2        0.0333
    118 N          30.9580   -2.3860  102.6470 N.am    3  PRO3       -0.2716
    119 CA         29.6750   -1.8220  103.0950 C.3     3  PRO3        0.1521
    120 C          29.9010   -0.7640  104.1880 C.2     3  PRO3        0.2440
    121 O          30.4900   -1.1200  105.2110 O.2     3  PRO3       -0.2731
    122 CB         28.9350   -3.0350  103.6670 C.3     3  PRO3        0.0310
    123 CG         30.0090   -3.9810  104.0780 C.3     3  PRO3        0.0237
    124 CD         31.1610   -3.7670  103.1310 C.3     3  PRO3        0.0939
    125 N          29.4580    0.4810  103.9940 N.am    4  PRO4       -0.2716
    126 CA         29.6770    1.5380  104.9810 C.3     4  PRO4        0.1536
    127 C          28.6290    1.5030  106.0840 C.2     4  PRO4        0.2598
    128 O          27.4540    1.2970  105.8020 O.2     4  PRO4       -0.2715
    129 CB         29.5160    2.8190  104.1530 C.3     4  PRO4        0.0310
    130 CG         28.5120    2.4840  103.1650 C.3     4  PRO4        0.0237
    131 CD         28.6960    0.9980  102.8440 C.3     4  PRO4        0.0939
    132 N          29.0460    1.7210  107.3240 N.am    5  GLU5       -0.1964
    133 CA         28.0860    1.7710  108.4120 C.3     5  GLU5        0.1731
    134 C          27.4370    3.1400  108.5510 C.2     5  GLU5        0.2616
    135 O          26.4270    3.2570  109.2350 O.2     5  GLU5       -0.2715
    136 CB         28.6850    1.3030  109.7390 C.3     5  GLU5        0.0370
    137 CG         30.0890    1.7730  110.0620 C.3     5  GLU5        0.0440
    138 CD         30.4360    1.5530  111.5240 C.2     5  GLU5        0.0504
    139 OE2        29.8580    0.6430  112.1610 O.co2   5  GLU5       -0.5492
    140 OE1        31.2850    2.2990  112.0430 O.co2   5  GLU5       -0.5492
    141 N          27.9970    4.1610  107.8960 N.am    6  VAL6       -0.1963
    142 CA         27.3910    5.5000  107.8610 C.3     6  VAL6        0.1727
    143 C          27.4810    6.1430  106.4670 C.2     6  VAL6        0.2616
    144 O          28.4950    6.0350  105.7860 O.2     6  VAL6       -0.2715
    145 CB         28.0470    6.4390  108.9000 C.3     6  VAL6        0.0290
    146 CG1        27.3240    7.7790  108.9870 C.3     6  VAL6        0.0023
    147 CG2        28.0300    5.8130  110.2720 C.3     6  VAL6        0.0023
    148 N          26.4130    6.8270  106.0590 N.am    7  VAL7       -0.1977
    149 CA         26.3670    7.5020  104.7700 C.3     7  VAL7        0.1596
    150 C          25.6370    8.8040  104.9270 C.2     7  VAL7        0.2287
    151 O          24.4770    8.7950  105.3130 O.2     7  VAL7       -0.2864
    152 CB         25.6070    6.6700  103.7190 C.3     7  VAL7        0.0276
    153 CG1        25.3080    7.5070  102.4710 C.3     7  VAL7        0.0022
    154 CG2        26.3870    5.4150  103.3590 C.3     7  VAL7        0.0022
    155 N          30.0720    9.4860   92.8000 N.3     1  PRO1       -0.2116
    156 CA         30.6690    8.7060   93.8910 C.3     1  PRO1        0.1372
    157 C          32.1270    8.2980   93.6630 C.2     1  PRO1        0.2244
    158 O          32.8920    8.2640   94.6150 O.2     1  PRO1       -0.2868
    159 CB         29.8050    7.4470   93.9270 C.3     1  PRO1        0.0268
    160 CG         28.5200    7.8520   93.4540 C.3     1  PRO1        0.0207
    161 CD         28.7360    8.9880   92.4620 C.3     1  PRO1        0.0892
    162 N          34.2890   11.4630   94.4040 N.3     1  VAL1       -0.1231
    163 CA         34.2770   11.7150   95.8270 C.3     1  VAL1        0.1692
    164 C          35.1730   10.7230   96.5470 C.2     1  VAL1        0.2592
    165 O          36.0150   11.1120   97.3280 O.2     1  VAL1       -0.2718
    166 CB         32.8490   11.6250   96.4300 C.3     1  VAL1        0.0266
    167 CG2        32.8900   11.9110   97.9140 C.3     1  VAL1        0.0020
    168 CG1        31.8880   12.6000   95.7610 C.3     1  VAL1        0.0020
    169 N          34.9820    9.4420   96.2750 N.am    2  ARG2       -0.1966
    170 CA         35.7630    8.3520   96.8930 C.3     2  ARG2        0.1729
    171 C          37.2430    8.5090   96.5980 C.2     2  ARG2        0.2617
    172 O          38.0970    8.3320   97.4460 O.2     2  ARG2       -0.2715
    173 CB         35.2850    7.0030   96.3410 C.3     2  ARG2        0.0348
    174 CG         35.5470    5.7850   97.2100 C.3     2  ARG2        0.0492
    175 CD         34.5140    4.6080   96.9630 C.3     2  ARG2        0.2205
    176 NE         34.1800    4.4850   95.5270 N.pl3   2  ARG2       -0.0865
    177 CZ         32.9500    4.4260   94.9830 C.cat   2  ARG2        0.5346
    178 NH2        31.8580    4.4130   95.7270 N.pl3   2  ARG2        0.1354
    179 NH1        32.8190    4.3540   93.6600 N.pl3   2  ARG2        0.1354
    180 N          37.5180    8.8620   95.3650 N.am    3  SER3       -0.1936
    181 CA         38.8680    8.9620   94.8480 C.3     3  SER3        0.2055
    182 C          39.6420   10.1670   95.4370 C.2     3  SER3        0.2644
    183 O          40.8580   10.0720   95.6390 O.2     3  SER3       -0.2714
    184 CB         38.7730    9.0660   93.3260 C.3     3  SER3        0.2130
    185 OG         40.0250    8.9600   92.7270 O.3     3  SER3       -0.2179
    186 N          38.9430   11.2820   95.7110 N.am    4  SER4       -0.1935
    187 CA         39.5600   12.4540   96.3530 C.3     4  SER4        0.2055
    188 C          40.0250   12.1880   97.7750 C.2     4  SER4        0.2644
    189 O          40.6940   13.0360   98.3600 O.2     4  SER4       -0.2714
    190 CB         38.5840   13.6310   96.4210 C.3     4  SER4        0.2130
    191 OG         37.5620   13.4070   97.3910 O.3     4  SER4       -0.2179
    192 N          39.6080   11.0530   98.3400 N.am    5  THR5       -0.1936
    193 CA         39.9370   10.6590   99.7130 C.3     5  THR5        0.2028
    194 C          39.7690   11.8110  100.7040 C.2     5  THR5        0.2643
    195 O          40.6810   12.1240  101.4620 O.2     5  THR5       -0.2714
    196 CB         41.3870   10.0650   99.7840 C.3     5  THR5        0.1808
    197 OG1        41.6530    9.2470   98.6420 O.3     5  THR5       -0.2208
    198 CG2        41.5000    9.0620  100.9180 C.3     5  THR5        0.0379
    199 N          38.6170   12.4650  100.6680 N.am    6  GLY6       -0.1939
    200 CA         38.3290   13.5560  101.5850 C.3     6  GLY6        0.2014
    201 C          38.7090   14.9500  101.1100 C.2     6  GLY6        0.2639
    202 O          38.2090   15.9290  101.6520 O.2     6  GLY6       -0.2714
    203 N          39.5730   15.0580  100.1020 N.am    7  SER7       -0.1949
    204 CA         40.1160   16.3600   99.6780 C.3     7  SER7        0.1924
    205 C          39.1020   17.2590   99.0180 C.2     7  SER7        0.2314
    206 O          39.2810   18.4770   99.0050 O.2     7  SER7       -0.2863
    207 CB         41.2830   16.1790   98.7200 C.3     7  SER7        0.2116
    208 OG         42.4360   15.8380   99.4600 O.3     7  SER7       -0.2180
    209 N          36.5150   18.0710  100.3290 N.3     1  PHE1       -0.1241
    210 CA         35.9620   18.9290  101.3660 C.3     1  PHE1        0.1605
    211 C          36.8400   20.1100  101.7270 C.2     1  PHE1        0.2264
    212 O          36.3400   21.0630  102.3030 O.2     1  PHE1       -0.2867
    213 CB         35.5480   18.0870  102.5610 C.3     1  PHE1        0.0534
    214 CG         34.6620   16.9470  102.1640 C.ar    1  PHE1       -0.0203
    215 CD1        33.4050   17.2000  101.6240 C.ar    1  PHE1       -0.0042
    216 CD2        35.1120   15.6270  102.2180 C.ar    1  PHE1       -0.0042
    217 CE1        32.5840   16.1520  101.1890 C.ar    1  PHE1       -0.0003
    218 CE2        34.2860   14.5810  101.8000 C.ar    1  PHE1       -0.0003
    219 CZ         33.0140   14.8550  101.2820 C.ar    1  PHE1       -0.0000
@<TRIPOS>UNITY_ATOM_ATTR
102 1
charge -1
111 1
charge -1
139 1
charge -1
@<TRIPOS>BOND
     1     1     2    1
     2     2     5    1
     3     2     3    1
     4     3     4    2
     5     3     9   am
     6     5     6    1
     7     6     8    1
     8     6     7    1
     9     9    10    1
    10    10    13    1
    11    10    11    1
    12    11    16   am
    13    11    12    2
    14    13    15    1
    15    13    14    1
    16    16    17    1
    17    17    20    1
    18    17    18    1
    19    18    19    2
    20    18    24   am
    21    20    21    1
    22    21    22    1
    23    22    23    1
    24    24    25    1
    25    25    26    1
    26    26    27    2
    27    26    28   am
    28    28    29    1
    29    29    30    1
    30    29    32    1
    31    30    35   am
    32    30    31    2
    33    32    34    1
    34    32    33    1
    35    35    36    1
    36    36    37    1
    37    36    39    1
    38    37    46   am
    39    37    38    2
    40    39    40    1
    41    40    41    1
    42    41    42    1
    43    42    43    2
    44    43    44    1
    45    43    45    1
    46    46    47    1
    47    46    52    1
    48    47    50    1
    49    47    48    1
    50    48    49    2
    51    48    53   am
    52    50    51    1
    53    51    52    1
    54    53    54    1
    55    54    57    1
    56    54    55    1
    57    55    56    2
    58    57    58    1
    59    57    59    1
    60    58    60    1
    61    61    62    1
    62    62    65    1
    63    62    63    1
    64    63    64    2
    65    65    66    1
    66    66    67    1
    67    66    68    1
    68    69    70    1
    69    70    73    1
    70    70    71    1
    71    71    72    2
    72    73    74    1
    73    74    76    2
    74    74    75    1
    75    75    77    1
    76    76    78   ar
    77    76    79   ar
    78    77    78    2
    79    78    80   ar
    80    79    81   ar
    81    80    82   ar
    82    81    82   ar
    83    83    84    1
    84    84    87    1
    85    84    85    1
    86    85    91   am
    87    85    86    2
    88    87    88    1
    89    88    90    1
    90    88    89    1
    91    91    92    1
    92    92    93    1
    93    93    94    2
    94    93    95   am
    95    95    96    1
    96    96    97    1
    97    96    99    1
    98    97    98    2
    99    99   100    1
   100   100   101    1
   101   101   102   ar
   102   101   103   ar
   103   104   105    1
   104   105   108    1
   105   105   106    1
   106   106   107    2
   107   106   113   am
   108   108   109    1
   109   109   110    1
   110   110   111   ar
   111   110   112   ar
   112   113   114    1
   113   114   117    1
   114   114   115    1
   115   115   116    2
   116   115   118   am
   117   118   119    1
   118   118   124    1
   119   119   122    1
   120   119   120    1
   121   120   125   am
   122   120   121    2
   123   122   123    1
   124   123   124    1
   125   125   131    1
   126   125   126    1
   127   126   129    1
   128   126   127    1
   129   127   128    2
   130   127   132   am
   131   129   130    1
   132   130   131    1
   133   132   133    1
   134   133   134    1
   135   133   136    1
   136   134   141   am
   137   134   135    2
   138   136   137    1
   139   137   138    1
   140   138   140   ar
   141   138   139   ar
   142   141   142    1
   143   142   143    1
   144   142   145    1
   145   143   144    2
   146   143   148   am
   147   145   146    1
   148   145   147    1
   149   148   149    1
   150   149   152    1
   151   149   150    1
   152   150   151    2
   153   152   153    1
   154   152   154    1
   155   155   161    1
   156   155   156    1
   157   156   157    1
   158   156   159    1
   159   157   158    2
   160   159   160    1
   161   160   161    1
   162   162   163    1
   163   163   166    1
   164   163   164    1
   165   164   169   am
   166   164   165    2
   167   166   168    1
   168   166   167    1
   169   169   170    1
   170   170   173    1
   171   170   171    1
   172   171   180   am
   173   171   172    2
   174   173   174    1
   175   174   175    1
   176   175   176    1
   177   176   177    2
   178   177   179    1
   179   177   178    1
   180   180   181    1
   181   181   184    1
   182   181   182    1
   183   182   183    2
   184   182   186   am
   185   184   185    1
   186   186   187    1
   187   187   190    1
   188   187   188    1
   189   188   192   am
   190   188   189    2
   191   190   191    1
   192   192   193    1
   193   193   196    1
   194   193   194    1
   195   194   199   am
   196   194   195    2
   197   196   197    1
   198   196   198    1
   199   199   200    1
   200   200   201    1
   201   201   203   am
   202   201   202    2
   203   203   204    1
   204   204   207    1
   205   204   205    1
   206   205   206    2
   207   207   208    1
   208   209   210    1
   209   210   211    1
   210   210   213    1
   211   211   212    2
   212   213   214    1
   213   214   215   ar
   214   214   216   ar
   215   215   217   ar
   216   216   218   ar
   217   217   219   ar
   218   218   219   ar
