@<TRIPOS>MOLECULE
./2sil/ligand.pdb
 20 20 0 0 0
SMALL
GASTEIGER

@<TRIPOS>ATOM
      1  C1        43.1440   51.8930   45.7220 C.2     1  DAN1        0.1067
      2  O1A       42.2370   52.2040   44.9500 O.co2   1  DAN1       -0.5416
      3  O1B       44.2840   51.8270   45.2450 O.co2   1  DAN1       -0.5416
      4  C2        42.9540   51.5700   47.0740 C.2     1  DAN1        0.1507
      5  C3        41.6990   51.1110   47.5000 C.2     1  DAN1        0.0461
      6  C4        41.5320   50.4770   48.8760 C.3     1  DAN1        0.2005
      7  O4        40.2990   50.8100   49.5070 O.3     1  DAN1       -0.2162
      8  C5        42.6710   50.9260   49.8030 C.3     1  DAN1        0.1722
      9  N5        42.5120   50.2100   51.0570 N.am    1  DAN1       -0.2004
     10  C6        44.0010   50.6440   49.0790 C.3     1  DAN1        0.2212
     11  O6        44.0580   51.4470   47.8980 O.2     1  DAN1       -0.4737
     12  C7        45.2100   51.0200   49.9070 C.3     1  DAN1        0.2261
     13  O7        45.0550   52.3880   50.2550 O.3     1  DAN1       -0.2164
     14  C8        46.4760   50.7660   49.0570 C.3     1  DAN1        0.2185
     15  O8        46.5260   49.3690   48.6880 O.3     1  DAN1       -0.2174
     16  C9        47.7450   51.1770   49.8680 C.3     1  DAN1        0.2175
     17  O9        47.8820   50.3710   51.0250 O.3     1  DAN1       -0.2175
     18  C10       42.7660   50.7610   52.2420 C.2     1  DAN1        0.2420
     19  O10       43.3710   51.8420   52.3360 O.2     1  DAN1       -0.2733
     20  C11       42.3930   49.9380   53.4740 C.3     1  DAN1        0.0964
@<TRIPOS>UNITY_ATOM_ATTR
2 1
charge -1
@<TRIPOS>BOND
     1     1     2   ar
     2     1     3   ar
     3     1     4    1
     4     4     5    2
     5     4    11    1
     6     5     6    1
     7     6     7    1
     8     6     8    1
     9     8     9    1
    10     8    10    1
    11     9    18   am
    12    10    11    1
    13    10    12    1
    14    12    13    1
    15    12    14    1
    16    14    15    1
    17    14    16    1
    18    16    17    1
    19    18    19    2
    20    18    20    1
