@<TRIPOS>MOLECULE
./1sth/protein.pdb
 254 249 0 0 0
SMALL
GASTEIGER

@<TRIPOS>ATOM
      1 N          12.7420   16.0710   13.1550 N.3     1  ASP1       -0.1241
      2 CA         11.8150   15.2880   12.3680 C.3     1  ASP1        0.1616
      3 C          10.5900   16.1510   12.0670 C.2     1  ASP1        0.2264
      4 O          10.7200   17.3810   12.1610 O.2     1  ASP1       -0.2867
      5 CB         11.4600   14.0050   13.1200 C.3     1  ASP1        0.0687
      6 CG         10.6100   14.1030   14.3730 C.2     1  ASP1        0.0522
      7 OD2        10.3930   15.1980   14.9060 O.co2   1  ASP1       -0.5491
      8 OD1        10.1460   13.0440   14.7970 O.co2   1  ASP1       -0.5491
      9 N           7.8620   17.1780   13.6480 N.3     1  ASP1       -0.1227
     10 CA          7.3030   18.1480   14.5740 C.3     1  ASP1        0.1748
     11 C           8.2930   18.6160   15.6230 C.2     1  ASP1        0.2596
     12 O           7.8530   19.2790   16.5500 O.2     1  ASP1       -0.2718
     13 CB          6.0330   17.5530   15.2660 C.3     1  ASP1        0.0701
     14 CG          6.2340   16.1840   15.9240 C.2     1  ASP1        0.0523
     15 OD2         7.3590   15.8530   16.2940 O.co2   1  ASP1       -0.5491
     16 OD1         5.2720   15.4270   16.0200 O.co2   1  ASP1       -0.5491
     17 N           9.5840   18.3420   15.4720 N.am    2  THR2       -0.1953
     18 CA         10.5580   18.7150   16.4770 C.3     2  THR2        0.1897
     19 C          11.7680   19.3100   15.7470 C.2     2  THR2        0.2313
     20 O          12.2910   18.6980   14.7960 O.2     2  THR2       -0.2863
     21 CB         10.9510   17.4660   17.2730 C.3     2  THR2        0.1794
     22 OG1         9.7990   16.8990   17.8940 O.3     2  THR2       -0.2208
     23 CG2        11.9410   17.8370   18.3450 C.3     2  THR2        0.0378
     24 N           9.1160   21.7570   20.1720 N.3     1  ARG1       -0.1231
     25 CA          8.1480   20.7900   19.7500 C.3     1  ARG1        0.1694
     26 C           6.9710   21.6500   19.2880 C.2     1  ARG1        0.2592
     27 O           6.5460   22.6000   19.9710 O.2     1  ARG1       -0.2718
     28 CB          7.7690   19.9040   20.9400 C.3     1  ARG1        0.0321
     29 CG          6.5810   18.9330   20.7860 C.3     1  ARG1        0.0489
     30 CD          6.8410   17.9050   19.6960 C.3     1  ARG1        0.2205
     31 NE          5.8900   16.8040   19.6380 N.pl3   1  ARG1       -0.0865
     32 CZ          4.6940   16.8990   19.0470 C.cat   1  ARG1        0.5346
     33 NH1         4.2730   18.0340   18.4630 N.pl3   1  ARG1        0.1354
     34 NH2         3.9080   15.8010   18.9910 N.pl3   1  ARG1        0.1354
     35 N           6.4770   21.3630   18.0820 N.am    2  LEU2       -0.1966
     36 CA          5.3510   22.0880   17.5110 C.3     2  LEU2        0.1728
     37 C           4.0480   21.8510   18.2790 C.2     2  LEU2        0.2616
     38 O           3.5990   20.7150   18.4600 O.2     2  LEU2       -0.2715
     39 CB          5.0730   21.6770   16.0420 C.3     2  LEU2        0.0311
     40 CG          6.1150   21.9120   14.9280 C.3     2  LEU2        0.0022
     41 CD1         5.4990   21.6050   13.5730 C.3     2  LEU2        0.0001
     42 CD2         6.5520   23.3290   14.9040 C.3     2  LEU2        0.0001
     43 N           3.4440   22.9390   18.7310 N.am    3  LEU3       -0.1963
     44 CA          2.1430   22.8650   19.3950 C.3     3  LEU3        0.1728
     45 C           1.0360   22.3260   18.4640 C.2     3  LEU3        0.2616
     46 O           0.9580   22.6020   17.2570 O.2     3  LEU3       -0.2715
     47 CB          1.6890   24.2480   19.9000 C.3     3  LEU3        0.0311
     48 CG          2.2810   24.7560   21.2160 C.3     3  LEU3        0.0022
     49 CD1         1.9760   26.2230   21.4190 C.3     3  LEU3        0.0001
     50 CD2         1.7140   23.9160   22.3410 C.3     3  LEU3        0.0001
     51 N           0.1940   21.5260   19.1210 N.am    4  LEU4       -0.1963
     52 CA         -1.0850   21.0370   18.6250 C.3     4  LEU4        0.1728
     53 C          -1.0530   20.0650   17.4910 C.2     4  LEU4        0.2616
     54 O          -2.1080   19.7960   16.9150 O.2     4  LEU4       -0.2715
     55 CB         -1.9930   22.2370   18.2380 C.3     4  LEU4        0.0311
     56 CG         -2.3060   23.2440   19.3610 C.3     4  LEU4        0.0022
     57 CD1        -3.1830   24.3630   18.8290 C.3     4  LEU4        0.0001
     58 CD2        -3.0300   22.5380   20.5030 C.3     4  LEU4        0.0001
     59 N           0.0860   19.4660   17.1830 N.am    5  VAL5       -0.1963
     60 CA          0.1380   18.5250   16.0750 C.3     5  VAL5        0.1727
     61 C           0.9310   17.3030   16.4360 C.2     5  VAL5        0.2616
     62 O           1.7640   17.3390   17.3440 O.2     5  VAL5       -0.2715
     63 CB          0.8030   19.1230   14.7880 C.3     5  VAL5        0.0290
     64 CG1         0.0520   20.3760   14.3630 C.3     5  VAL5        0.0023
     65 CG2         2.2870   19.4410   15.0360 C.3     5  VAL5        0.0023
     66 N           0.7310   16.2130   15.7080 N.am    6  ASP6       -0.1959
     67 CA          1.5570   15.0470   15.9000 C.3     6  ASP6        0.1783
     68 C           1.9190   14.5100   14.5350 C.2     6  ASP6        0.2620
     69 O           0.9900   14.2170   13.7740 O.2     6  ASP6       -0.2715
     70 CB          0.7920   13.9980   16.6800 C.3     6  ASP6        0.0728
     71 CG          1.6540   12.8260   17.1200 C.2     6  ASP6        0.0526
     72 OD1         2.8790   12.9500   17.2320 O.co2   6  ASP6       -0.5491
     73 OD2         1.0890   11.7650   17.3540 O.co2   6  ASP6       -0.5491
     74 N           3.2080   14.4170   14.1830 N.am    7  THR7       -0.1951
     75 CA          3.5800   13.8780   12.8820 C.3     7  THR7        0.1897
     76 C           3.9030   12.4030   13.0660 C.2     7  THR7        0.2313
     77 O           4.2660   12.0480   14.1970 O.2     7  THR7       -0.2863
     78 CB          4.8330   14.5750   12.2350 C.3     7  THR7        0.1794
     79 OG1         5.8920   14.7040   13.1770 O.3     7  THR7       -0.2208
     80 CG2         4.4230   15.9350   11.6960 C.3     7  THR7        0.0378
     81 N           6.0090    8.9900   13.3470 N.3     1  GLU1       -0.1245
     82 CA          7.3000    8.7790   13.9290 C.3     1  GLU1        0.1565
     83 C           8.3310    8.3030   12.9290 C.2     1  GLU1        0.2260
     84 O           8.0070    7.5980   11.9780 O.2     1  GLU1       -0.2867
     85 CB          7.0880    7.7810   15.0480 C.3     1  GLU1        0.0329
     86 CG          8.2710    7.5830   15.9590 C.3     1  GLU1        0.0437
     87 CD          8.6080    8.8260   16.7600 C.2     1  GLU1        0.0504
     88 OE2         7.7680    9.2660   17.5570 O.co2   1  GLU1       -0.5492
     89 OE1         9.7110    9.3440   16.5590 O.co2   1  GLU1       -0.5492
     90 N          11.6400    7.9530   14.5550 N.3     1  LYS1       -0.1231
     91 CA         12.4940    7.4840   15.6370 C.3     1  LYS1        0.1693
     92 C          11.9480    6.3580   16.5250 C.2     1  LYS1        0.2592
     93 O          11.6470    5.2780   16.0310 O.2     1  LYS1       -0.2718
     94 CB         12.8470    8.7240   16.4810 C.3     1  LYS1        0.0285
     95 CG         14.2790    9.2070   16.4240 C.3     1  LYS1        0.0035
     96 CD         14.6280    9.7930   15.0770 C.3     1  LYS1        0.0206
     97 CE         14.0440   11.1860   14.9490 C.3     1  LYS1        0.1093
     98 NZ         14.3620   11.6970   13.6330 N.3     1  LYS1       -0.1314
     99 N          11.7120    6.5940   17.8210 N.am    2  HIS2       -0.1976
    100 CA         11.2970    5.6100   18.8190 C.3     2  HIS2        0.1652
    101 C          10.7530    4.2090   18.4860 C.2     2  HIS2        0.2291
    102 O           9.5880    4.0960   18.1160 O.2     2  HIS2       -0.2864
    103 CB         10.2740    6.2920   19.7570 C.3     2  HIS2        0.0731
    104 CG         10.0850    5.5320   21.0710 C.2     2  HIS2        0.0652
    105 ND1        10.7960    4.4950   21.5220 N.2     2  HIS2       -0.2310
    106 CD2         9.1520    5.8500   22.0320 C.3     2  HIS2        0.1683
    107 CE1        10.3290    4.1900   22.7040 C.2     2  HIS2        0.1939
    108 NE2         9.3500    5.0030   23.0050 N.2     2  HIS2       -0.2440
    109 N           6.9520    3.0670   18.5920 N.3     1  LYS1       -0.1245
    110 CA          6.2730    3.9500   17.6560 C.3     1  LYS1        0.1561
    111 C           7.0240    3.4700   16.4140 C.2     1  LYS1        0.2260
    112 O           6.6460    2.4200   15.8720 O.2     1  LYS1       -0.2867
    113 CB          6.5720    5.4360   17.8790 C.3     1  LYS1        0.0271
    114 CG          6.0370    6.3030   19.0150 C.3     1  LYS1        0.0035
    115 CD          4.5780    6.7220   18.8390 C.3     1  LYS1        0.0206
    116 CE          4.2830    7.8490   19.8400 C.3     1  LYS1        0.1093
    117 NZ          2.9420    8.3740   19.6650 N.3     1  LYS1       -0.1314
    118 N          -0.0730   29.5220   27.8390 N.3     1  GLY1       -0.1210
    119 CA          0.1460   28.7000   29.0190 C.3     1  GLY1        0.1956
    120 C           1.6380   28.4190   29.1250 C.2     1  GLY1        0.2611
    121 O           2.4730   29.2620   28.7660 O.2     1  GLY1       -0.2717
    122 N           2.0410   27.2370   29.5860 N.am    2  GLN2       -0.1979
    123 CA          3.4530   26.9540   29.6950 C.3     2  GLN2        0.1601
    124 C           4.1820   26.9190   28.3490 C.2     2  GLN2        0.2287
    125 O           3.6780   26.5130   27.2870 O.2     2  GLN2       -0.2864
    126 CB          3.7200   25.6310   30.3930 C.3     2  GLN2        0.0394
    127 CG          3.0500   24.3570   30.0280 C.3     2  GLN2        0.0908
    128 CD          1.8200   24.2590   30.9100 C.2     2  GLN2        0.2608
    129 OE1         0.7960   24.8940   30.5970 O.2     2  GLN2       -0.2717
    130 NE2         1.8590   23.5350   32.0220 N.am    2  GLN2       -0.0878
    131 N           7.3330   25.3740   28.0330 N.3     1  THR1       -0.1203
    132 CA          8.1440   24.1860   27.7930 C.3     1  THR1        0.1994
    133 C           7.3410   23.0040   28.2800 C.2     1  THR1        0.2618
    134 O           6.3970   23.1710   29.0690 O.2     1  THR1       -0.2717
    135 CB          9.5160   24.2070   28.5560 C.3     1  THR1        0.1784
    136 OG1         9.2830   24.3480   29.9380 O.3     1  THR1       -0.2211
    137 CG2        10.3520   25.3840   28.1860 C.3     1  THR1        0.0376
    138 N           7.6000   21.8250   27.7400 N.am    2  ASP2       -0.1961
    139 CA          6.9590   20.6360   28.2670 C.3     2  ASP2        0.1783
    140 C           7.8630   19.9460   29.3190 C.2     2  ASP2        0.2620
    141 O           8.9800   20.4140   29.6060 O.2     2  ASP2       -0.2715
    142 CB          6.6320   19.7030   27.0980 C.3     2  ASP2        0.0728
    143 CG          7.7880   19.1000   26.3290 C.2     2  ASP2        0.0526
    144 OD2         8.9510   19.1740   26.7250 O.co2   2  ASP2       -0.5491
    145 OD1         7.4960   18.5060   25.3110 O.co2   2  ASP2       -0.5491
    146 N           7.4720   18.7500   29.7850 N.am    3  LYS3       -0.1963
    147 CA          8.1970   17.9980   30.7990 C.3     3  LYS3        0.1728
    148 C           9.5850   17.5400   30.3570 C.2     3  LYS3        0.2616
    149 O          10.4370   17.2380   31.1990 O.2     3  LYS3       -0.2715
    150 CB          7.3640   16.7820   31.2130 C.3     3  LYS3        0.0311
    151 CG          7.1340   15.7920   30.0970 C.3     3  LYS3        0.0038
    152 CD          6.1180   14.7970   30.5790 C.3     3  LYS3        0.0206
    153 CE          5.7690   13.7950   29.4890 C.3     3  LYS3        0.1093
    154 NZ          4.6500   12.9460   29.8730 N.3     3  LYS3       -0.1314
    155 N           9.8570   17.4870   29.0410 N.am    4  TYR4       -0.1974
    156 CA         11.1730   17.1570   28.5060 C.3     4  TYR4        0.1639
    157 C          12.0320   18.3690   28.3050 C.2     4  TYR4        0.2290
    158 O          13.1220   18.2360   27.7440 O.2     4  TYR4       -0.2864
    159 CB         11.0460   16.4380   27.1720 C.3     4  TYR4        0.0560
    160 CG         10.2790   15.1350   27.3310 C.ar    4  TYR4       -0.0198
    161 CD2        10.9270   14.0160   27.8750 C.ar    4  TYR4       -0.0009
    162 CD1         8.9260   15.0650   26.9700 C.ar    4  TYR4       -0.0009
    163 CE2        10.2240   12.8200   28.0630 C.ar    4  TYR4        0.0417
    164 CE1         8.2220   13.8750   27.1610 C.ar    4  TYR4        0.0417
    165 CZ          8.8780   12.7550   27.7070 C.ar    4  TYR4        0.1957
    166 OH          8.1900   11.5730   27.8950 O.3     4  TYR4       -0.2866
    167 N          11.4080   20.7970   26.2300 N.3     1  ARG1       -0.1231
    168 CA         11.2940   21.3000   24.8620 C.3     1  ARG1        0.1694
    169 C          10.4260   22.5640   24.8650 C.2     1  ARG1        0.2593
    170 O           9.4030   22.6270   25.5670 O.2     1  ARG1       -0.2718
    171 CB         10.6310   20.2830   23.9660 C.3     1  ARG1        0.0321
    172 CG         11.3630   18.9670   23.9330 C.3     1  ARG1        0.0489
    173 CD         10.8100   17.9420   22.9610 C.3     1  ARG1        0.2205
    174 NE          9.4970   17.5260   23.3910 N.pl3   1  ARG1       -0.0865
    175 CZ          8.7870   16.5850   22.7730 C.cat   1  ARG1        0.5346
    176 NH1         9.2430   15.9480   21.6890 N.pl3   1  ARG1        0.1354
    177 NH2         7.5870   16.2970   23.2870 N.pl3   1  ARG1        0.1354
    178 N          10.7870   23.5800   24.0950 N.am    2  GLY2       -0.1942
    179 CA          9.9710   24.7810   23.9420 C.3     2  GLY2        0.2014
    180 C           8.6850   24.3770   23.1900 C.2     2  GLY2        0.2639
    181 O           8.7160   23.5590   22.2650 O.2     2  GLY2       -0.2714
    182 N           7.5370   24.8940   23.5790 N.am    3  LEU3       -0.1963
    183 CA          6.2550   24.5880   22.9580 C.3     3  LEU3        0.1728
    184 C           5.7990   25.8410   22.2100 C.2     3  LEU3        0.2616
    185 O           5.4750   26.8740   22.8210 O.2     3  LEU3       -0.2715
    186 CB          5.2350   24.2070   24.0420 C.3     3  LEU3        0.0311
    187 CG          5.4770   22.9160   24.8120 C.3     3  LEU3        0.0022
    188 CD2         4.3760   22.7520   25.8900 C.3     3  LEU3        0.0001
    189 CD1         5.4800   21.7480   23.8330 C.3     3  LEU3        0.0001
    190 N           5.7960   25.7770   20.8760 N.am    4  ALA4       -0.1977
    191 CA          5.4570   26.9690   20.1030 C.3     4  ALA4        0.1597
    192 C           4.8290   26.6460   18.7530 C.2     4  ALA4        0.2287
    193 O           4.8010   25.4880   18.2880 O.2     4  ALA4       -0.2864
    194 CB          6.7230   27.8100   19.8520 C.3     4  ALA4        0.0319
    195 N          -3.3610   17.1830   17.6050 N.3     1  ALA1       -0.1231
    196 CA         -3.1740   16.3490   18.7700 C.3     1  ALA1        0.1694
    197 C          -2.6280   17.1560   19.9370 C.2     1  ALA1        0.2592
    198 O          -2.2820   18.3190   19.7790 O.2     1  ALA1       -0.2718
    199 CB         -2.1950   15.2540   18.4210 C.3     1  ALA1        0.0304
    200 N          -2.6020   16.5460   21.1390 N.am    2  TYR2       -0.1962
    201 CA         -2.0390   17.1070   22.3780 C.3     2  TYR2        0.1771
    202 C          -2.5970   18.4620   22.7070 C.2     2  TYR2        0.2619
    203 O          -1.8530   19.4230   22.9430 O.2     2  TYR2       -0.2715
    204 CB         -0.5110   17.2000   22.2520 C.3     2  TYR2        0.0574
    205 CG          0.1090   15.8330   22.0790 C.ar    2  TYR2       -0.0198
    206 CD2        -0.0910   14.8720   23.0790 C.ar    2  TYR2       -0.0009
    207 CD1         0.8690   15.5400   20.9500 C.ar    2  TYR2       -0.0009
    208 CE2         0.4790   13.6110   22.9430 C.ar    2  TYR2        0.0417
    209 CE1         1.4420   14.2820   20.8030 C.ar    2  TYR2        0.0417
    210 CZ          1.2370   13.3370   21.8070 C.ar    2  TYR2        0.1957
    211 OH          1.8020   12.0910   21.6890 O.3     2  TYR2       -0.2866
    212 N          -3.9260   18.5600   22.7160 N.am    3  VAL3       -0.1963
    213 CA         -4.5350   19.8710   22.8620 C.3     3  VAL3        0.1727
    214 C          -4.7310   20.0840   24.3640 C.2     3  VAL3        0.2616
    215 O          -5.6410   19.5150   24.9650 O.2     3  VAL3       -0.2715
    216 CB         -5.8790   19.9120   22.0530 C.3     3  VAL3        0.0290
    217 CG2        -6.4460   21.3040   22.2070 C.3     3  VAL3        0.0023
    218 CG1        -5.6970   19.6990   20.5360 C.3     3  VAL3        0.0023
    219 N          -3.8250   20.8280   25.0030 N.am    4  TYR4       -0.1960
    220 CA         -3.8640   21.0570   26.4360 C.3     4  TYR4        0.1771
    221 C          -4.1290   22.5260   26.6760 C.2     4  TYR4        0.2619
    222 O          -3.3270   23.4090   26.3550 O.2     4  TYR4       -0.2715
    223 CB         -2.5180   20.6460   27.0810 C.3     4  TYR4        0.0574
    224 CG         -2.0910   19.1820   26.8900 C.ar    4  TYR4       -0.0198
    225 CD2        -2.9970   18.1480   27.1590 C.ar    4  TYR4       -0.0009
    226 CD1        -0.8140   18.8700   26.4050 C.ar    4  TYR4       -0.0009
    227 CE2        -2.6430   16.8170   26.9350 C.ar    4  TYR4        0.0417
    228 CE1        -0.4480   17.5400   26.1780 C.ar    4  TYR4        0.0417
    229 CZ         -1.3690   16.5150   26.4460 C.ar    4  TYR4        0.1957
    230 OH         -1.0280   15.1790   26.2460 O.3     4  TYR4       -0.2866
    231 N          -5.3050   22.8550   27.2030 N.am    5  LYS5       -0.1964
    232 CA         -5.6390   24.2430   27.5590 C.3     5  LYS5        0.1713
    233 C          -4.6900   24.7820   28.6500 C.2     5  LYS5        0.2458
    234 O          -4.1880   23.9590   29.4240 O.2     5  LYS5       -0.2730
    235 CB         -7.0970   24.2900   28.0350 C.3     5  LYS5        0.0311
    236 CG         -7.9830   24.4280   26.8090 C.3     5  LYS5        0.0038
    237 CD         -9.4370   24.0630   27.0530 C.3     5  LYS5        0.0206
    238 CE         -9.6010   22.5460   27.2170 C.3     5  LYS5        0.1093
    239 NZ         -9.1210   21.7840   26.0610 N.3     5  LYS5       -0.1314
    240 N          -4.3330   26.0780   28.7400 N.am    6  PRO6       -0.2716
    241 CA         -4.7070   27.1540   27.8150 C.3     6  PRO6        0.1536
    242 C          -3.8590   27.2520   26.5270 C.2     6  PRO6        0.2598
    243 O          -3.9100   28.2850   25.8440 O.2     6  PRO6       -0.2715
    244 CB         -4.5950   28.3620   28.6860 C.3     6  PRO6        0.0310
    245 CG         -3.3600   28.0910   29.5150 C.3     6  PRO6        0.0237
    246 CD         -3.4810   26.6080   29.8160 C.3     6  PRO6        0.0939
    247 N          -3.0280   26.2470   26.1600 N.am    7  ASN7       -0.1973
    248 CA         -2.1780   26.3420   24.9740 C.3     7  ASN7        0.1688
    249 C          -2.9420   25.8770   23.7560 C.2     7  ASN7        0.2292
    250 O          -2.5880   24.8740   23.1180 O.2     7  ASN7       -0.2864
    251 CB         -0.9350   25.4790   25.1280 C.3     7  ASN7        0.1181
    252 CG          0.1810   26.1560   25.8890 C.2     7  ASN7        0.2629
    253 OD1         0.1050   27.3490   26.1700 O.2     7  ASN7       -0.2716
    254 ND2         1.2150   25.4300   26.2620 N.am    7  ASN7       -0.0877
@<TRIPOS>UNITY_ATOM_ATTR
7 1
charge -1
15 1
charge -1
72 1
charge -1
88 1
charge -1
144 1
charge -1
@<TRIPOS>BOND
     1     1     2    1
     2     2     3    1
     3     2     5    1
     4     3     4    2
     5     5     6    1
     6     6     8   ar
     7     6     7   ar
     8     9    10    1
     9    10    13    1
    10    10    11    1
    11    11    17   am
    12    11    12    2
    13    13    14    1
    14    14    16   ar
    15    14    15   ar
    16    17    18    1
    17    18    19    1
    18    18    21    1
    19    19    20    2
    20    21    22    1
    21    21    23    1
    22    24    25    1
    23    25    26    1
    24    25    28    1
    25    26    35   am
    26    26    27    2
    27    28    29    1
    28    29    30    1
    29    30    31    1
    30    31    32    2
    31    32    33    1
    32    32    34    1
    33    35    36    1
    34    36    39    1
    35    36    37    1
    36    37    38    2
    37    37    43   am
    38    39    40    1
    39    40    41    1
    40    40    42    1
    41    43    44    1
    42    44    45    1
    43    44    47    1
    44    45    46    2
    45    45    51   am
    46    47    48    1
    47    48    49    1
    48    48    50    1
    49    51    52    1
    50    52    53    1
    51    52    55    1
    52    53    54    2
    53    53    59   am
    54    55    56    1
    55    56    57    1
    56    56    58    1
    57    59    60    1
    58    60    63    1
    59    60    61    1
    60    61    66   am
    61    61    62    2
    62    63    64    1
    63    63    65    1
    64    66    67    1
    65    67    68    1
    66    67    70    1
    67    68    69    2
    68    68    74   am
    69    70    71    1
    70    71    72   ar
    71    71    73   ar
    72    74    75    1
    73    75    78    1
    74    75    76    1
    75    76    77    2
    76    78    80    1
    77    78    79    1
    78    81    82    1
    79    82    83    1
    80    82    85    1
    81    83    84    2
    82    85    86    1
    83    86    87    1
    84    87    89   ar
    85    87    88   ar
    86    90    91    1
    87    91    94    1
    88    91    92    1
    89    92    93    2
    90    92    99   am
    91    94    95    1
    92    95    96    1
    93    96    97    1
    94    97    98    1
    95    99   100    1
    96   100   101    1
    97   100   103    1
    98   101   102    2
    99   103   104    1
   100   104   105    2
   101   104   106    1
   102   105   107    1
   103   106   108    1
   104   107   108    2
   105   109   110    1
   106   110   111    1
   107   110   113    1
   108   111   112    2
   109   113   114    1
   110   114   115    1
   111   115   116    1
   112   116   117    1
   113   118   119    1
   114   119   120    1
   115   120   121    2
   116   120   122   am
   117   122   123    1
   118   123   124    1
   119   123   126    1
   120   124   125    2
   121   126   127    1
   122   127   128    1
   123   128   129    2
   124   128   130   am
   125   131   132    1
   126   132   133    1
   127   132   135    1
   128   133   138   am
   129   133   134    2
   130   135   137    1
   131   135   136    1
   132   138   139    1
   133   139   142    1
   134   139   140    1
   135   140   141    2
   136   140   146   am
   137   142   143    1
   138   143   145   ar
   139   143   144   ar
   140   146   147    1
   141   147   148    1
   142   147   150    1
   143   148   155   am
   144   148   149    2
   145   150   151    1
   146   151   152    1
   147   152   153    1
   148   153   154    1
   149   155   156    1
   150   156   159    1
   151   156   157    1
   152   157   158    2
   153   159   160    1
   154   160   162   ar
   155   160   161   ar
   156   161   163   ar
   157   162   164   ar
   158   163   165   ar
   159   164   165   ar
   160   165   166    1
   161   167   168    1
   162   168   171    1
   163   168   169    1
   164   169   178   am
   165   169   170    2
   166   171   172    1
   167   172   173    1
   168   173   174    1
   169   174   175    2
   170   175   176    1
   171   175   177    1
   172   178   179    1
   173   179   180    1
   174   180   181    2
   175   180   182   am
   176   182   183    1
   177   183   184    1
   178   183   186    1
   179   184   190   am
   180   184   185    2
   181   186   187    1
   182   187   189    1
   183   187   188    1
   184   190   191    1
   185   191   192    1
   186   191   194    1
   187   192   193    2
   188   195   196    1
   189   196   199    1
   190   196   197    1
   191   197   198    2
   192   197   200   am
   193   200   201    1
   194   201   204    1
   195   201   202    1
   196   202   212   am
   197   202   203    2
   198   204   205    1
   199   205   207   ar
   200   205   206   ar
   201   206   208   ar
   202   207   209   ar
   203   208   210   ar
   204   209   210   ar
   205   210   211    1
   206   212   213    1
   207   213   216    1
   208   213   214    1
   209   214   215    2
   210   214   219   am
   211   216   218    1
   212   216   217    1
   213   219   220    1
   214   220   221    1
   215   220   223    1
   216   221   222    2
   217   221   231   am
   218   223   224    1
   219   224   226   ar
   220   224   225   ar
   221   225   227   ar
   222   226   228   ar
   223   227   229   ar
   224   228   229   ar
   225   229   230    1
   226   231   232    1
   227   232   235    1
   228   232   233    1
   229   233   240   am
   230   233   234    2
   231   235   236    1
   232   236   237    1
   233   237   238    1
   234   238   239    1
   235   240   241    1
   236   240   246    1
   237   241   242    1
   238   241   244    1
   239   242   243    2
   240   242   247   am
   241   244   245    1
   242   245   246    1
   243   247   248    1
   244   248   249    1
   245   248   251    1
   246   249   250    2
   247   251   252    1
   248   252   253    2
   249   252   254   am
