@<TRIPOS>MOLECULE
./1v3s/protein.pdb
 191 183 0 0 0
SMALL
GASTEIGER

@<TRIPOS>ATOM
      1 N           0.9400   23.1840  -27.5190 N.3     1  MET1       -0.1230
      2 CA          2.1860   23.1990  -26.7020 C.3     1  MET1        0.1702
      3 C           1.8730   22.8120  -25.2630 C.2     1  MET1        0.2592
      4 O           0.9770   23.3820  -24.6440 O.2     1  MET1       -0.2718
      5 CB          2.8070   24.6000  -26.7290 C.3     1  MET1        0.0401
      6 CG          3.9700   24.7870  -27.6940 C.3     1  MET1        0.0596
      7 SD          3.8530   23.8960  -29.2650 S.3     1  MET1       -0.1393
      8 CE          5.3560   22.9140  -29.1740 C.3     1  MET1        0.0692
      9 N           2.6000   21.8280  -24.7460 N.am    2  LYS2       -0.1966
     10 CA          2.4230   21.3890  -23.3650 C.3     2  LYS2        0.1728
     11 C           3.7850   21.0440  -22.7800 C.2     2  LYS2        0.2616
     12 O           4.7250   20.7420  -23.5110 O.2     2  LYS2       -0.2715
     13 CB          1.5200   20.1510  -23.2860 C.3     2  LYS2        0.0311
     14 CG          0.0660   20.3790  -23.6880 C.3     2  LYS2        0.0038
     15 CD         -0.6660   21.2550  -22.6800 C.3     2  LYS2        0.0206
     16 CE         -2.1040   21.5210  -23.1080 C.3     2  LYS2        0.1093
     17 NZ         -2.1770   22.3260  -24.3610 N.3     2  LYS2       -0.1314
     18 N           3.8940   21.1110  -21.4590 N.am    3  LEU3       -0.1977
     19 CA          5.1340   20.7500  -20.7900 C.3     3  LEU3        0.1596
     20 C           4.7520   19.5770  -19.9020 C.2     3  LEU3        0.2287
     21 O           3.9610   19.7180  -18.9700 O.2     3  LEU3       -0.2864
     22 CB          5.6750   21.8990  -19.9340 C.3     3  LEU3        0.0297
     23 CG          7.0250   21.5990  -19.2640 C.3     3  LEU3        0.0022
     24 CD1         8.0920   21.3110  -20.3280 C.3     3  LEU3        0.0001
     25 CD2         7.4500   22.7910  -18.4030 C.3     3  LEU3        0.0001
     26 N           9.6410    8.7510  -30.9330 N.3     1  GLU1       -0.1231
     27 CA         10.1540    9.9440  -31.6010 C.3     1  GLU1        0.1697
     28 C          10.2040   11.1820  -30.7090 C.2     1  GLU1        0.2592
     29 O          10.1750   12.3110  -31.2020 O.2     1  GLU1       -0.2718
     30 CB          9.3250   10.2460  -32.8530 C.3     1  GLU1        0.0343
     31 CG          9.3470    9.1400  -33.8940 C.3     1  GLU1        0.0437
     32 CD          8.5500    9.4990  -35.1320 C.2     1  GLU1        0.0504
     33 OE1         8.8950   10.5040  -35.7890 O.co2   1  GLU1       -0.5492
     34 OE2         7.5770    8.7790  -35.4470 O.co2   1  GLU1       -0.5492
     35 N          10.2740   10.9690  -29.4000 N.am    2  VAL2       -0.1966
     36 CA         10.3560   12.0730  -28.4500 C.3     2  VAL2        0.1727
     37 C          11.7950   12.1130  -27.9510 C.2     2  VAL2        0.2616
     38 O          12.1780   11.3340  -27.0760 O.2     2  VAL2       -0.2715
     39 CB          9.4170   11.8560  -27.2480 C.3     2  VAL2        0.0290
     40 CG2         9.5620   13.0040  -26.2670 C.3     2  VAL2        0.0023
     41 CG1         7.9810   11.7430  -27.7260 C.3     2  VAL2        0.0023
     42 N          12.5910   13.0220  -28.5020 N.am    3  ARG3       -0.1963
     43 CA         13.9940   13.1130  -28.1180 C.3     3  ARG3        0.1729
     44 C          14.3300   14.2880  -27.2080 C.2     3  ARG3        0.2617
     45 O          15.2330   14.1920  -26.3790 O.2     3  ARG3       -0.2715
     46 CB         14.8630   13.1640  -29.3770 C.3     3  ARG3        0.0348
     47 CG         14.4190   12.1660  -30.4330 C.3     3  ARG3        0.0492
     48 CD         15.3270   12.1510  -31.6490 C.3     3  ARG3        0.2205
     49 NE         14.7230   11.4110  -32.7560 N.pl3   3  ARG3       -0.0865
     50 CZ         14.2640   10.1650  -32.6690 C.cat   3  ARG3        0.5346
     51 NH2        14.3350    9.5020  -31.5230 N.pl3   3  ARG3        0.1354
     52 NH1        13.7270    9.5810  -33.7310 N.pl3   3  ARG3        0.1354
     53 N          13.6090   15.3940  -27.3620 N.am    4  GLY4       -0.1940
     54 CA         13.8710   16.5590  -26.5350 C.3     4  GLY4        0.2014
     55 C          13.3600   16.4020  -25.1150 C.2     4  GLY4        0.2639
     56 O          12.1690   16.1780  -24.9030 O.2     4  GLY4       -0.2714
     57 N          14.2560   16.5110  -24.1370 N.am    5  LEU5       -0.1963
     58 CA         13.8620   16.3810  -22.7380 C.3     5  LEU5        0.1728
     59 C          14.9410   16.8240  -21.7590 C.2     5  LEU5        0.2616
     60 O          16.1220   16.9030  -22.0970 O.2     5  LEU5       -0.2715
     61 CB         13.4440   14.9330  -22.4390 C.3     5  LEU5        0.0311
     62 CG         14.4590   13.7910  -22.5450 C.3     5  LEU5        0.0022
     63 CD2        15.3150   13.7350  -21.2870 C.3     5  LEU5        0.0001
     64 CD1        13.7180   12.4750  -22.7110 C.3     5  LEU5        0.0001
     65 N          14.5170   17.1220  -20.5370 N.am    6  THR6       -0.1951
     66 CA         15.4240   17.5550  -19.4840 C.3     6  THR6        0.1897
     67 C          15.0820   16.7510  -18.2420 C.2     6  THR6        0.2313
     68 O          13.9140   16.4540  -17.9980 O.2     6  THR6       -0.2863
     69 CB         15.2330   19.0560  -19.1810 C.3     6  THR6        0.1794
     70 OG1        15.5750   19.8210  -20.3440 O.3     6  THR6       -0.2208
     71 CG2        16.1060   19.4850  -18.0150 C.3     6  THR6        0.0378
     72 N          11.1860   16.4410  -17.6790 N.3     1  GLU1       -0.1231
     73 CA         10.4720   17.6250  -18.1300 C.3     1  GLU1        0.1697
     74 C          10.5310   17.5790  -19.6550 C.2     1  GLU1        0.2592
     75 O          11.6070   17.7100  -20.2430 O.2     1  GLU1       -0.2718
     76 CB         11.1770   18.8610  -17.5830 C.3     1  GLU1        0.0343
     77 CG         10.3750   20.1300  -17.6240 C.3     1  GLU1        0.0437
     78 CD         10.9590   21.1820  -16.7010 C.2     1  GLU1        0.0504
     79 OE1        12.1430   21.5360  -16.8810 O.co2   1  GLU1       -0.5492
     80 OE2        10.2390   21.6450  -15.7910 O.co2   1  GLU1       -0.5492
     81 N           9.3730   17.3980  -20.2880 N.am    2  ILE2       -0.1966
     82 CA          9.3110   17.2640  -21.7370 C.3     2  ILE2        0.1727
     83 C           8.3520   18.2180  -22.4440 C.2     2  ILE2        0.2617
     84 O           7.1330   18.1150  -22.2860 O.2     2  ILE2       -0.2715
     85 CB          8.8990   15.8220  -22.1110 C.3     2  ILE2        0.0290
     86 CG1         9.6730   14.8230  -21.2500 C.3     2  ILE2        0.0022
     87 CG2         9.1680   15.5680  -23.5880 C.3     2  ILE2        0.0023
     88 CD1         9.1240   13.4070  -21.3030 C.3     2  ILE2        0.0001
     89 N           8.9110   19.1360  -23.2270 N.am    3  GLY3       -0.1940
     90 CA          8.0960   20.0740  -23.9800 C.3     3  GLY3        0.2014
     91 C           7.6870   19.4050  -25.2840 C.2     3  GLY3        0.2639
     92 O           8.5360   18.9180  -26.0350 O.2     3  GLY3       -0.2714
     93 N           6.3910   19.3770  -25.5650 N.am    4  VAL4       -0.1963
     94 CA          5.9120   18.7260  -26.7780 C.3     4  VAL4        0.1727
     95 C           4.8080   19.5050  -27.4690 C.2     4  VAL4        0.2616
     96 O           4.1400   20.3350  -26.8550 O.2     4  VAL4       -0.2715
     97 CB          5.3610   17.3090  -26.4700 C.3     4  VAL4        0.0290
     98 CG1         6.4650   16.4090  -25.9550 C.3     4  VAL4        0.0023
     99 CG2         4.2400   17.4030  -25.4440 C.3     4  VAL4        0.0023
    100 N           4.6290   19.2350  -28.7600 N.am    5  SER5       -0.1950
    101 CA          3.5750   19.8780  -29.5310 C.3     5  SER5        0.1924
    102 C           2.3190   19.0890  -29.1890 C.2     5  SER5        0.2314
    103 O           2.4110   17.9700  -28.6950 O.2     5  SER5       -0.2863
    104 CB          3.8720   19.7840  -31.0310 C.3     5  SER5        0.2116
    105 OG          4.0430   18.4360  -31.4330 O.3     5  SER5       -0.2180
    106 N           1.9430   15.3830  -29.9650 N.3     1  PHE1       -0.1241
    107 CA          2.8060   14.4550  -29.2440 C.3     1  PHE1        0.1605
    108 C           2.4780   14.2430  -27.7700 C.2     1  PHE1        0.2264
    109 O           3.1740   13.4980  -27.0830 O.2     1  PHE1       -0.2867
    110 CB          4.2690   14.8760  -29.3810 C.3     1  PHE1        0.0534
    111 CG          4.8560   14.5750  -30.7280 C.ar    1  PHE1       -0.0203
    112 CD1         4.4560   15.2910  -31.8520 C.ar    1  PHE1       -0.0042
    113 CD2         5.7880   13.5530  -30.8790 C.ar    1  PHE1       -0.0042
    114 CE1         4.9760   14.9910  -33.1100 C.ar    1  PHE1       -0.0003
    115 CE2         6.3130   13.2460  -32.1320 C.ar    1  PHE1       -0.0003
    116 CZ          5.9050   13.9670  -33.2490 C.ar    1  PHE1       -0.0000
    117 N           3.5260   10.6660  -25.8580 N.3     1  THR1       -0.1218
    118 CA          4.5020   10.8360  -24.7870 C.3     1  THR1        0.1862
    119 C           3.9530   10.3000  -23.4700 C.2     1  THR1        0.2287
    120 O           4.6290    9.5530  -22.7620 O.2     1  THR1       -0.2866
    121 CB          4.8800   12.3180  -24.6090 C.3     1  THR1        0.1770
    122 OG1         5.3410   12.8400  -25.8600 O.3     1  THR1       -0.2211
    123 CG2         5.9890   12.4680  -23.5770 C.3     1  THR1        0.0375
    124 N           1.4180   25.3760  -21.9660 N.3     1  VAL1       -0.1245
    125 CA          2.5280   26.2560  -22.3160 C.3     1  VAL1        0.1561
    126 C           1.9820   27.3230  -23.2530 C.2     1  VAL1        0.2260
    127 O           1.2860   27.0070  -24.2230 O.2     1  VAL1       -0.2867
    128 CB          3.6560   25.4850  -23.0360 C.3     1  VAL1        0.0252
    129 CG1         4.6890   26.4640  -23.6020 C.3     1  VAL1        0.0019
    130 CG2         4.3200   24.5280  -22.0640 C.3     1  VAL1        0.0019
    131 N           3.9250   29.6500  -24.9410 N.3     1  LYS1       -0.1231
    132 CA          4.8060   29.7790  -26.0900 C.3     1  LYS1        0.1693
    133 C           6.1590   29.1560  -25.7770 C.2     1  LYS1        0.2592
    134 O           6.5490   29.0470  -24.6120 O.2     1  LYS1       -0.2718
    135 CB          4.9600   31.2680  -26.4240 C.3     1  LYS1        0.0285
    136 CG          5.4640   31.5680  -27.8200 C.3     1  LYS1        0.0035
    137 CD          5.0330   32.9680  -28.2340 C.3     1  LYS1        0.0206
    138 CE          5.6210   33.3710  -29.5730 C.3     1  LYS1        0.1093
    139 NZ          5.2770   32.4390  -30.6850 N.3     1  LYS1       -0.1314
    140 N           6.8630   28.7390  -26.8230 N.am    2  VAL2       -0.1966
    141 CA          8.1800   28.1340  -26.6740 C.3     2  VAL2        0.1727
    142 C           9.1390   28.7860  -27.6620 C.2     2  VAL2        0.2616
    143 O           8.7730   29.0400  -28.8110 O.2     2  VAL2       -0.2715
    144 CB          8.1520   26.6280  -26.9870 C.3     2  VAL2        0.0290
    145 CG1         9.5280   26.0250  -26.7220 C.3     2  VAL2        0.0023
    146 CG2         7.0830   25.9340  -26.1510 C.3     2  VAL2        0.0023
    147 N          10.3610   29.0570  -27.2160 N.am    3  TYR3       -0.1960
    148 CA         11.3630   29.6640  -28.0890 C.3     3  TYR3        0.1771
    149 C          12.5880   28.7760  -28.2030 C.2     3  TYR3        0.2619
    150 O          13.0750   28.2420  -27.2100 O.2     3  TYR3       -0.2715
    151 CB         11.8180   31.0300  -27.5620 C.3     3  TYR3        0.0574
    152 CG         10.7490   32.0960  -27.5120 C.ar    3  TYR3       -0.0198
    153 CD2         9.8580   32.1690  -26.4400 C.ar    3  TYR3       -0.0009
    154 CD1        10.6410   33.0490  -28.5270 C.ar    3  TYR3       -0.0009
    155 CE2         8.8920   33.1610  -26.3760 C.ar    3  TYR3        0.0417
    156 CE1         9.6740   34.0500  -28.4720 C.ar    3  TYR3        0.0417
    157 CZ          8.8040   34.1010  -27.3940 C.ar    3  TYR3        0.1957
    158 OH          7.8510   35.0930  -27.3330 O.3     3  TYR3       -0.2866
    159 N          13.0870   28.6220  -29.4220 N.am    4  ARG4       -0.1977
    160 CA         14.2830   27.8290  -29.6480 C.3     4  ARG4        0.1597
    161 C          15.4000   28.8680  -29.6580 C.2     4  ARG4        0.2287
    162 O          15.3910   29.7890  -30.4760 O.2     4  ARG4       -0.2864
    163 CB         14.1740   27.1170  -30.9920 C.3     4  ARG4        0.0334
    164 CG         15.2150   26.0490  -31.2290 C.3     4  ARG4        0.0492
    165 CD         14.7620   25.1410  -32.3570 C.3     4  ARG4        0.2205
    166 NE         13.4710   24.5280  -32.0480 N.pl3   4  ARG4       -0.0865
    167 CZ         12.8860   23.5940  -32.7910 C.cat   4  ARG4        0.5346
    168 NH1        13.4740   23.1560  -33.8960 N.pl3   4  ARG4        0.1354
    169 NH2        11.7130   23.0940  -32.4250 N.pl3   4  ARG4        0.1354
    170 N          13.2630   30.6310  -33.2760 N.3     1  GLU1       -0.1245
    171 CA         11.9180   30.2550  -33.6960 C.3     1  GLU1        0.1565
    172 C          10.9930   30.1050  -32.4950 C.2     1  GLU1        0.2260
    173 O          11.3910   29.5790  -31.4590 O.2     1  GLU1       -0.2867
    174 CB         11.9720   28.9420  -34.4740 C.3     1  GLU1        0.0329
    175 CG         12.8930   28.9990  -35.6840 C.3     1  GLU1        0.0437
    176 CD         13.0730   27.6510  -36.3550 C.2     1  GLU1        0.0504
    177 OE2        13.5610   26.7120  -35.6890 O.co2   1  GLU1       -0.5492
    178 OE1        12.7290   27.5320  -37.5510 O.co2   1  GLU1       -0.5492
    179 N           7.1040   28.8090  -31.0450 N.3     1  ASP1       -0.1241
    180 CA          5.9460   27.9490  -31.2730 C.3     1  ASP1        0.1616
    181 C           4.8530   28.2380  -30.2520 C.2     1  ASP1        0.2264
    182 O           5.1410   28.5320  -29.0940 O.2     1  ASP1       -0.2867
    183 CB          6.3370   26.4730  -31.1570 C.3     1  ASP1        0.0687
    184 CG          7.5180   26.1120  -32.0290 C.2     1  ASP1        0.0522
    185 OD1         7.5010   26.4680  -33.2260 O.co2   1  ASP1       -0.5491
    186 OD2         8.4580   25.4650  -31.5180 O.co2   1  ASP1       -0.5491
    187 N           1.5430   26.6330  -31.2510 N.3     1  ALA1       -0.1245
    188 CA          0.6130   25.5910  -31.6840 C.3     1  ALA1        0.1562
    189 C           0.6100   24.3620  -30.7750 C.2     1  ALA1        0.2260
    190 O           1.0670   23.2870  -31.2260 O.2     1  ALA1       -0.2867
    191 CB          0.9330   25.1770  -33.1190 C.3     1  ALA1        0.0290
@<TRIPOS>UNITY_ATOM_ATTR
33 1
charge -1
79 1
charge -1
177 1
charge -1
185 1
charge -1
@<TRIPOS>BOND
     1     1     2    1
     2     2     5    1
     3     2     3    1
     4     3     9   am
     5     3     4    2
     6     5     6    1
     7     6     7    1
     8     7     8    1
     9     9    10    1
    10    10    13    1
    11    10    11    1
    12    11    12    2
    13    11    18   am
    14    13    14    1
    15    14    15    1
    16    15    16    1
    17    16    17    1
    18    18    19    1
    19    19    22    1
    20    19    20    1
    21    20    21    2
    22    22    23    1
    23    23    24    1
    24    23    25    1
    25    26    27    1
    26    27    30    1
    27    27    28    1
    28    28    29    2
    29    28    35   am
    30    30    31    1
    31    31    32    1
    32    32    33   ar
    33    32    34   ar
    34    35    36    1
    35    36    37    1
    36    36    39    1
    37    37    42   am
    38    37    38    2
    39    39    41    1
    40    39    40    1
    41    42    43    1
    42    43    46    1
    43    43    44    1
    44    44    53   am
    45    44    45    2
    46    46    47    1
    47    47    48    1
    48    48    49    1
    49    49    50    2
    50    50    52    1
    51    50    51    1
    52    53    54    1
    53    54    55    1
    54    55    56    2
    55    55    57   am
    56    57    58    1
    57    58    61    1
    58    58    59    1
    59    59    60    2
    60    59    65   am
    61    61    62    1
    62    62    64    1
    63    62    63    1
    64    65    66    1
    65    66    69    1
    66    66    67    1
    67    67    68    2
    68    69    70    1
    69    69    71    1
    70    72    73    1
    71    73    74    1
    72    73    76    1
    73    74    81   am
    74    74    75    2
    75    76    77    1
    76    77    78    1
    77    78    79   ar
    78    78    80   ar
    79    81    82    1
    80    82    83    1
    81    82    85    1
    82    83    89   am
    83    83    84    2
    84    85    87    1
    85    85    86    1
    86    86    88    1
    87    89    90    1
    88    90    91    1
    89    91    92    2
    90    91    93   am
    91    93    94    1
    92    94    95    1
    93    94    97    1
    94    95   100   am
    95    95    96    2
    96    97    98    1
    97    97    99    1
    98   100   101    1
    99   101   104    1
   100   101   102    1
   101   102   103    2
   102   104   105    1
   103   106   107    1
   104   107   110    1
   105   107   108    1
   106   108   109    2
   107   110   111    1
   108   111   112   ar
   109   111   113   ar
   110   112   114   ar
   111   113   115   ar
   112   114   116   ar
   113   115   116   ar
   114   117   118    1
   115   118   121    1
   116   118   119    1
   117   119   120    2
   118   121   122    1
   119   121   123    1
   120   124   125    1
   121   125   126    1
   122   125   128    1
   123   126   127    2
   124   128   129    1
   125   128   130    1
   126   131   132    1
   127   132   135    1
   128   132   133    1
   129   133   140   am
   130   133   134    2
   131   135   136    1
   132   136   137    1
   133   137   138    1
   134   138   139    1
   135   140   141    1
   136   141   142    1
   137   141   144    1
   138   142   143    2
   139   142   147   am
   140   144   145    1
   141   144   146    1
   142   147   148    1
   143   148   149    1
   144   148   151    1
   145   149   159   am
   146   149   150    2
   147   151   152    1
   148   152   154   ar
   149   152   153   ar
   150   153   155   ar
   151   154   156   ar
   152   155   157   ar
   153   156   157   ar
   154   157   158    1
   155   159   160    1
   156   160   163    1
   157   160   161    1
   158   161   162    2
   159   163   164    1
   160   164   165    1
   161   165   166    1
   162   166   167    2
   163   167   168    1
   164   167   169    1
   165   170   171    1
   166   171   174    1
   167   171   172    1
   168   172   173    2
   169   174   175    1
   170   175   176    1
   171   176   178   ar
   172   176   177   ar
   173   179   180    1
   174   180   183    1
   175   180   181    1
   176   181   182    2
   177   183   184    1
   178   184   185   ar
   179   184   186   ar
   180   187   188    1
   181   188   191    1
   182   188   189    1
   183   189   190    2
