@<TRIPOS>MOLECULE
./2ctc/ligand.pdb
 12 12 0 0 0
SMALL
GASTEIGER

@<TRIPOS>ATOM
      1  CA        -2.4960   29.7350   -8.5250 C.3     1  HFA1        0.1923
      2  C         -1.0160   29.4920   -8.2580 C.2     1  HFA1        0.0808
      3  O         -0.7370   28.3520   -8.6920 O.co2   1  HFA1       -0.5466
      4  OA        -3.1430   29.9510   -7.5210 O.3     1  HFA1       -0.2167
      5  CB        -2.6970   30.8080   -9.6040 C.3     1  HFA1        0.0650
      6  CG        -2.4780   30.1810  -10.9420 C.ar    1  HFA1       -0.0192
      7  CD1       -1.2300   30.3900  -11.5760 C.ar    1  HFA1       -0.0042
      8  CD2       -3.4090   29.4290  -11.6850 C.ar    1  HFA1       -0.0042
      9  CE1       -0.9480   29.8730  -12.8540 C.ar    1  HFA1       -0.0003
     10  CE2       -3.1430   28.8790  -12.9390 C.ar    1  HFA1       -0.0003
     11  CZ        -1.8960   29.1080  -13.5440 C.ar    1  HFA1       -0.0000
     12  OXT       -0.2400   30.3370   -7.7570 O.co2   1  HFA1       -0.5466
@<TRIPOS>UNITY_ATOM_ATTR
3 1
charge -1
@<TRIPOS>BOND
     1     1     2    1
     2     1     5    1
     3     1     4    1
     4     2     3   ar
     5     2    12   ar
     6     5     6    1
     7     6     7   ar
     8     6     8   ar
     9     7     9   ar
    10     8    10   ar
    11     9    11   ar
    12    10    11   ar
