@<TRIPOS>MOLECULE
./2ypi/ligand.pdb
 9 8 0 0 0
SMALL
GASTEIGER

@<TRIPOS>ATOM
      1  P         93.6280   42.7410   47.7230 P.3     1  PGA1        0.5329
      2  O1P       92.1590   42.7410   48.4850 O.3     1  PGA1       -0.2641
      3  O2P       94.7130   41.9010   48.3330 O.3     1  PGA1       -0.1145
      4  O3P       93.8770   44.2520   47.5700 O.3     1  PGA1       -0.1145
      5  O4P       93.1120   42.2370   46.3890 O.2     1  PGA1       -0.2224
      6  C1        90.7180   43.0770   50.3910 C.2     1  PGA1        0.0807
      7  O1        89.8010   43.5800   49.6670 O.co2   1  PGA1       -0.5466
      8  C2        92.1480   42.7410   49.8570 C.3     1  PGA1        0.1951
      9  O2        90.7130   42.9090   51.7250 O.co2   1  PGA1       -0.5466
@<TRIPOS>UNITY_ATOM_ATTR
7 1
charge -1
@<TRIPOS>BOND
     1     1     2    1
     2     1     3    1
     3     1     4    1
     4     1     5    2
     5     2     8    1
     6     6     7   ar
     7     6     9   ar
     8     6     8    1
