@<TRIPOS>MOLECULE
./1x6u/protein.pdb
 246 237 0 0 0
SMALL
GASTEIGER

@<TRIPOS>ATOM
      1 N          12.0550  -16.2730   38.2570 N.3     1  ASN1       -0.1225
      2 CA         11.5430  -14.9270   38.1260 C.3     1  ASN1        0.1785
      3 C          11.4530  -14.5560   36.6660 C.2     1  ASN1        0.2597
      4 O          10.3620  -14.5430   36.0840 O.2     1  ASN1       -0.2718
      5 CB         12.4170  -13.9240   38.8630 C.3     1  ASN1        0.1169
      6 CG         11.7960  -12.5340   38.8920 C.2     1  ASN1        0.2627
      7 OD1        11.5940  -11.9040   37.8520 O.2     1  ASN1       -0.2716
      8 ND2        11.4830  -12.0550   40.0870 N.am    1  ASN1       -0.0877
      9 N          12.6050  -14.2640   36.0710 N.am    2  VAL2       -0.1980
     10 CA         12.6520  -13.8880   34.6650 C.3     2  VAL2        0.1595
     11 C          13.2610  -14.9970   33.8190 C.2     2  VAL2        0.2287
     12 O          13.8550  -15.9400   34.3480 O.2     2  VAL2       -0.2864
     13 CB         13.5100  -12.6280   34.4480 C.3     2  VAL2        0.0276
     14 CG1        13.0990  -11.9320   33.1600 C.3     2  VAL2        0.0022
     15 CG2        13.3910  -11.7000   35.6280 C.3     2  VAL2        0.0022
     16 N           6.4600  -21.3830   35.8560 N.3     1  LYS1       -0.1245
     17 CA          6.1750  -19.9530   35.7120 C.3     1  LYS1        0.1561
     18 C           7.4660  -19.1660   35.4660 C.2     1  LYS1        0.2260
     19 O           8.5220  -19.4810   36.0300 O.2     1  LYS1       -0.2867
     20 CB          5.4500  -19.4210   36.9610 C.3     1  LYS1        0.0271
     21 CG          6.2480  -18.4820   37.8500 C.3     1  LYS1        0.0035
     22 CD          6.2680  -17.0620   37.2910 C.3     1  LYS1        0.0206
     23 CE          7.1530  -16.1540   38.1350 C.3     1  LYS1        0.1093
     24 NZ          7.4160  -14.8600   37.4370 N.3     1  LYS1       -0.1314
     25 N           8.8300  -14.9700   33.7750 N.3     1  SER1       -0.1217
     26 CA          8.5240  -13.7020   33.1230 C.3     1  SER1        0.1889
     27 CB          9.4260  -13.5290   31.8960 C.2     1  SER1        0.2288
     28 OG         10.6300  -13.7990   31.9590 O.2     1  SER1       -0.2866
     29 C           8.7350  -12.5420   34.1060 C.3     1  SER1        0.2089
     30 O           7.8350  -12.6420   35.2000 O.3     1  SER1       -0.2183
     31 N           9.2760  -10.6770   30.4620 N.3     1  ASP1       -0.1227
     32 CA          9.3420   -9.2270   30.4970 C.3     1  ASP1        0.1748
     33 C           9.4420   -8.6560   31.8990 C.2     1  ASP1        0.2596
     34 O           9.0760   -9.3050   32.8790 O.2     1  ASP1       -0.2718
     35 CB          8.1060   -8.6560   29.8030 C.3     1  ASP1        0.0701
     36 CG          8.4580   -7.7260   28.6580 C.2     1  ASP1        0.0523
     37 OD2         8.9110   -6.6070   28.9590 O.co2   1  ASP1       -0.5491
     38 OD1         8.2910   -8.1230   27.4810 O.co2   1  ASP1       -0.5491
     39 N           9.9440   -7.4280   31.9800 N.am    2  LYS2       -0.1966
     40 CA         10.0990   -6.7200   33.2540 C.3     2  LYS2        0.1728
     41 C           9.9670   -5.2190   33.0100 C.2     2  LYS2        0.2616
     42 O          10.8530   -4.5940   32.4150 O.2     2  LYS2       -0.2715
     43 CB         11.4690   -7.0170   33.8790 C.3     2  LYS2        0.0311
     44 CG         11.6130   -8.4310   34.4490 C.3     2  LYS2        0.0038
     45 CD         11.2890   -8.5070   35.9510 C.3     2  LYS2        0.0206
     46 CE          9.8670   -8.0490   36.2890 C.3     2  LYS2        0.1093
     47 NZ          8.8040   -8.9530   35.7620 N.3     2  LYS2       -0.1314
     48 N           8.8620   -4.6450   33.4790 N.am    3  ALA3       -0.1963
     49 CA          8.6050   -3.2250   33.2860 C.3     3  ALA3        0.1728
     50 C           8.9210   -2.3120   34.4810 C.2     3  ALA3        0.2616
     51 O           8.9480   -1.0910   34.3260 O.2     3  ALA3       -0.2715
     52 CB          7.1480   -3.0260   32.8500 C.3     3  ALA3        0.0334
     53 N           9.1750   -2.8780   35.6600 N.am    4  ASN4       -0.1958
     54 CA          9.4540   -2.0480   36.8400 C.3     4  ASN4        0.1819
     55 C          10.9150   -1.9920   37.2440 C.2     4  ASN4        0.2621
     56 O          11.2330   -1.6370   38.3770 O.2     4  ASN4       -0.2715
     57 CB          8.6890   -2.5610   38.0440 C.3     4  ASN4        0.1195
     58 CG          7.3510   -3.0980   37.6820 C.2     4  ASN4        0.2630
     59 OD1         6.4080   -2.3480   37.4380 O.2     4  ASN4       -0.2716
     60 ND2         7.2540   -4.4170   37.6250 N.am    4  ASN4       -0.0877
     61 N          11.8010   -2.3400   36.3280 N.am    5  ARG5       -0.1977
     62 CA         13.2150   -2.3390   36.6360 C.3     5  ARG5        0.1597
     63 C          13.7380   -0.9190   36.7940 C.2     5  ARG5        0.2287
     64 O          13.1680    0.0250   36.2470 O.2     5  ARG5       -0.2864
     65 CB         14.0080   -3.0830   35.5550 C.3     5  ARG5        0.0334
     66 CG         13.3270   -4.3520   35.0540 C.3     5  ARG5        0.0492
     67 CD         13.4150   -5.4440   36.1060 C.3     5  ARG5        0.2205
     68 NE         12.5350   -5.1840   37.2400 N.pl3   5  ARG5       -0.0865
     69 CZ         11.2110   -5.0990   37.1560 C.cat   5  ARG5        0.5346
     70 NH1        10.6030   -5.2540   35.9880 N.pl3   5  ARG5        0.1354
     71 NH2        10.4920   -4.8530   38.2410 N.pl3   5  ARG5        0.1354
     72 N           3.1760  -13.5240   33.0010 N.3     1  ASP1       -0.1227
     73 CA          2.4350  -12.2710   33.1150 C.3     1  ASP1        0.1748
     74 C           2.4860  -11.3850   31.8700 C.2     1  ASP1        0.2596
     75 O           3.4500  -11.4350   31.1200 O.2     1  ASP1       -0.2718
     76 CB          2.9800  -11.4890   34.3100 C.3     1  ASP1        0.0701
     77 CG          4.4880  -11.2220   34.2030 C.2     1  ASP1        0.0523
     78 OD2         5.2750  -12.1950   34.1800 O.co2   1  ASP1       -0.5491
     79 OD1         4.8660  -10.0340   34.1340 O.co2   1  ASP1       -0.5491
     80 N           1.4580  -10.5660   31.6540 N.am    2  VAL2       -0.1966
     81 CA          1.4510   -9.6490   30.5090 C.3     2  VAL2        0.1727
     82 C           1.4090   -8.2070   31.0410 C.2     2  VAL2        0.2616
     83 O           1.0870   -7.9830   32.2060 O.2     2  VAL2       -0.2715
     84 CB          0.2360   -9.8790   29.5750 C.3     2  VAL2        0.0290
     85 CG1         0.0690  -11.3540   29.2940 C.3     2  VAL2        0.0023
     86 CG2        -1.0100   -9.2900   30.1890 C.3     2  VAL2        0.0023
     87 N           1.7420   -7.2290   30.2050 N.am    3  HIS3       -0.1973
     88 CA          1.7360   -5.8470   30.6720 C.3     3  HIS3        0.1652
     89 C           0.9010   -4.8950   29.8210 C.2     3  HIS3        0.2291
     90 O           0.3320   -3.9400   30.3450 O.2     3  HIS3       -0.2864
     91 CB          3.1670   -5.2960   30.7750 C.3     3  HIS3        0.0731
     92 CG          4.0920   -6.1370   31.6140 C.2     3  HIS3        0.0652
     93 ND1         4.5330   -7.3780   31.2070 N.2     3  HIS3       -0.2310
     94 CD2         4.6370   -5.9210   32.8340 C.3     3  HIS3        0.1683
     95 CE1         5.3100   -7.8930   32.1460 C.2     3  HIS3        0.1939
     96 NE2         5.3910   -7.0340   33.1420 N.2     3  HIS3       -0.2440
     97 N          -1.3460  -14.0930   33.4500 N.3     1  GLN1       -0.1231
     98 CA         -1.3540  -13.4800   34.7800 C.3     1  GLN1        0.1698
     99 C          -1.4760  -11.9720   34.7290 C.2     1  GLN1        0.2592
    100 O          -0.8870  -11.3200   33.8770 O.2     1  GLN1       -0.2718
    101 CB         -0.0750  -13.8590   35.5330 C.3     1  GLN1        0.0381
    102 CG         -0.0510  -13.4340   36.9790 C.3     1  GLN1        0.0905
    103 CD          1.2750  -13.7220   37.6650 C.2     1  GLN1        0.2608
    104 OE1         2.2500  -12.9780   37.5080 O.2     1  GLN1       -0.2717
    105 NE2         1.3270  -14.8240   38.4080 N.am    1  GLN1       -0.0878
    106 N          -2.2470  -11.4190   35.6550 N.am    2  LEU2       -0.1966
    107 CA         -2.4190   -9.9720   35.7240 C.3     2  LEU2        0.1713
    108 C          -1.5910   -9.4570   36.8970 C.2     2  LEU2        0.2458
    109 O          -1.7840   -9.8880   38.0340 O.2     2  LEU2       -0.2730
    110 CB         -3.8930   -9.5890   35.9170 C.3     2  LEU2        0.0310
    111 CG         -4.1860   -8.0860   36.1320 C.3     2  LEU2        0.0022
    112 CD1        -3.7220   -7.2890   34.9330 C.3     2  LEU2        0.0001
    113 CD2        -5.6620   -7.8590   36.3560 C.3     2  LEU2        0.0001
    114 N          -0.6320   -8.5590   36.6220 N.am    3  PRO3       -0.2716
    115 CA          0.2920   -7.9140   37.5730 C.3     3  PRO3        0.1536
    116 C          -0.4890   -7.0790   38.5900 C.2     3  PRO3        0.2598
    117 O          -1.5580   -6.5700   38.2680 O.2     3  PRO3       -0.2715
    118 CB          1.1620   -7.0680   36.6570 C.3     3  PRO3        0.0310
    119 CG          1.2440   -7.9130   35.4050 C.3     3  PRO3        0.0237
    120 CD         -0.2190   -8.3010   35.2290 C.3     3  PRO3        0.0939
    121 N           0.0160   -6.9200   39.8090 N.am    4  ALA4       -0.1964
    122 CA         -0.7390   -6.1550   40.8060 C.3     4  ALA4        0.1728
    123 C          -0.9000   -4.6940   40.4420 C.2     4  ALA4        0.2616
    124 O          -2.0080   -4.1620   40.4480 O.2     4  ALA4       -0.2715
    125 CB         -0.0830   -6.2730   42.1640 C.3     4  ALA4        0.0334
    126 N           0.2150   -4.0550   40.1050 N.am    5  PHE5       -0.1960
    127 CA          0.2180   -2.6350   39.7520 C.3     5  PHE5        0.1771
    128 C          -0.7960   -2.3200   38.6690 C.2     5  PHE5        0.2619
    129 O          -1.2170   -1.1760   38.5150 O.2     5  PHE5       -0.2715
    130 CB          1.6100   -2.2110   39.2730 C.3     5  PHE5        0.0574
    131 CG          2.7140   -2.5580   40.2380 C.ar    5  PHE5       -0.0200
    132 CD2         2.7680   -1.9830   41.5090 C.ar    5  PHE5       -0.0042
    133 CD1         3.6870   -3.4860   39.8840 C.ar    5  PHE5       -0.0042
    134 CE2         3.7790   -2.3290   42.4090 C.ar    5  PHE5       -0.0003
    135 CE1         4.7030   -3.8380   40.7760 C.ar    5  PHE5       -0.0003
    136 CZ          4.7460   -3.2590   42.0410 C.ar    5  PHE5       -0.0000
    137 N          -1.1920   -3.3500   37.9310 N.am    6  LEU6       -0.1977
    138 CA         -2.1360   -3.1980   36.8350 C.3     6  LEU6        0.1596
    139 C          -3.4810   -3.8700   37.1090 C.2     6  LEU6        0.2287
    140 O          -4.3540   -3.9130   36.2370 O.2     6  LEU6       -0.2864
    141 CB         -1.5160   -3.7830   35.5700 C.3     6  LEU6        0.0297
    142 CG         -0.0660   -3.3680   35.3480 C.3     6  LEU6        0.0022
    143 CD1         0.5340   -4.2030   34.2390 C.3     6  LEU6        0.0001
    144 CD2        -0.0120   -1.8810   35.0360 C.3     6  LEU6        0.0001
    145 N          -2.9910  -11.1390   40.7210 N.3     1  LYS1       -0.1245
    146 CA         -2.1610  -10.9330   41.9090 C.3     1  LYS1        0.1561
    147 C          -2.8290   -9.8560   42.7530 C.2     1  LYS1        0.2260
    148 O          -3.1240   -8.8020   42.2450 O.2     1  LYS1       -0.2867
    149 CB         -0.7560  -10.4800   41.5030 C.3     1  LYS1        0.0271
    150 CG          0.0620  -11.4900   40.6520 C.3     1  LYS1        0.0035
    151 CD          0.5100  -12.7160   41.4560 C.3     1  LYS1        0.0206
    152 CE          1.5100  -12.3540   42.5470 C.3     1  LYS1        0.1093
    153 NZ          2.8610  -12.0860   41.9990 N.3     1  LYS1       -0.1314
    154 N          -0.7220   -5.0800   47.0830 N.3     1  GLN1       -0.1245
    155 CA         -0.3780   -4.9590   48.4990 C.3     1  GLN1        0.1566
    156 C          -1.1420   -3.8290   49.1730 C.2     1  GLN1        0.2260
    157 O          -1.2210   -3.7690   50.4000 O.2     1  GLN1       -0.2867
    158 CB          1.1150   -4.7160   48.6250 C.3     1  GLN1        0.0367
    159 CG          1.5260   -3.4360   47.9530 C.3     1  GLN1        0.0905
    160 CD          3.0120   -3.2770   47.8640 C.2     1  GLN1        0.2608
    161 OE1         3.6650   -3.8990   47.0240 O.2     1  GLN1       -0.2717
    162 NE2         3.5670   -2.4490   48.7380 N.am    1  GLN1       -0.0878
    163 N           0.0620  -11.7970   47.9750 N.3     1  ARG1       -0.1245
    164 CA          1.4910  -11.6150   48.2310 C.3     1  ARG1        0.1563
    165 C           1.7270  -10.6180   49.3740 C.2     1  ARG1        0.2260
    166 O           2.6880   -9.8310   49.3470 O.2     1  ARG1       -0.2867
    167 CB          2.2010  -11.1480   46.9510 C.3     1  ARG1        0.0307
    168 CG          1.3930  -10.1950   46.0900 C.3     1  ARG1        0.0489
    169 CD          1.2400   -8.8130   46.7240 C.3     1  ARG1        0.2205
    170 NE          2.1780   -7.8420   46.1620 N.pl3   1  ARG1       -0.0865
    171 CZ          3.4300   -7.6710   46.5740 C.cat   1  ARG1        0.5346
    172 NH2         3.9160   -8.4030   47.5690 N.pl3   1  ARG1        0.1354
    173 NH1         4.1970   -6.7610   45.9840 N.pl3   1  ARG1        0.1354
    174 N           1.4080  -16.3310   47.1650 N.3     1  ASP1       -0.1241
    175 CA          2.7230  -16.0730   46.5730 C.3     1  ASP1        0.1616
    176 C           3.7060  -15.7840   47.7060 C.2     1  ASP1        0.2264
    177 O           3.9690  -14.6330   48.0440 O.2     1  ASP1       -0.2867
    178 CB          2.6960  -14.8700   45.6370 C.3     1  ASP1        0.0687
    179 CG          4.0150  -14.6820   44.9120 C.2     1  ASP1        0.0522
    180 OD2         4.9910  -15.3640   45.2930 O.co2   1  ASP1       -0.5491
    181 OD1         4.0770  -13.8580   43.9840 O.co2   1  ASP1       -0.5491
    182 N           7.0830  -16.1780   47.9890 N.3     1  THR1       -0.1203
    183 CA          8.3370  -15.4770   47.6980 C.3     1  THR1        0.1994
    184 C           8.1690  -13.9760   47.4810 C.2     1  THR1        0.2617
    185 O           9.0940  -13.2200   47.7220 O.2     1  THR1       -0.2717
    186 CB          9.1200  -16.0850   46.4570 C.3     1  THR1        0.1784
    187 OG1         8.2060  -16.3500   45.3920 O.3     1  THR1       -0.2211
    188 CG2         9.8770  -17.3670   46.8280 C.3     1  THR1        0.0376
    189 N           7.0020  -13.5370   47.0250 N.am    2  HIS2       -0.1975
    190 CA          6.7830  -12.1180   46.7940 C.3     2  HIS2        0.1652
    191 C           6.2430  -11.4240   48.0540 C.2     2  HIS2        0.2291
    192 O           6.2110  -10.2020   48.1430 O.2     2  HIS2       -0.2864
    193 CB          5.8460  -11.9270   45.5980 C.3     2  HIS2        0.0731
    194 CG          5.8890  -10.5510   44.9990 C.2     2  HIS2        0.0652
    195 ND1         5.5770  -10.3080   43.6790 N.2     2  HIS2       -0.2310
    196 CD2         6.1990   -9.3510   45.5430 C.3     2  HIS2        0.1683
    197 CE1         5.6950   -9.0170   43.4320 C.2     2  HIS2        0.1939
    198 NE2         6.0710   -8.4100   44.5450 N.2     2  HIS2       -0.2440
    199 N           9.4030   -9.8080   49.9540 N.3     1  GLN1       -0.1245
    200 CA         10.1820   -8.9130   49.1050 C.3     1  GLN1        0.1566
    201 C          11.4700   -9.5520   48.5980 C.2     1  GLN1        0.2260
    202 O          12.4690   -8.8740   48.3380 O.2     1  GLN1       -0.2867
    203 CB         10.5160   -7.6250   49.8540 C.3     1  GLN1        0.0367
    204 CG          9.3240   -6.8070   50.2690 C.3     1  GLN1        0.0905
    205 CD          9.5860   -6.0670   51.5600 C.2     1  GLN1        0.2608
    206 OE1         9.9240   -6.6830   52.5780 O.2     1  GLN1       -0.2717
    207 NE2         9.4380   -4.7410   51.5340 N.am    1  GLN1       -0.0878
    208 N           2.4870  -20.3510   45.0710 N.3     1  PHE1       -0.1241
    209 CA          3.2680  -19.7180   44.0120 C.3     1  PHE1        0.1605
    210 C           4.6250  -19.4910   44.6090 C.2     1  PHE1        0.2264
    211 O           4.7230  -19.0350   45.7360 O.2     1  PHE1       -0.2867
    212 CB          2.6230  -18.3750   43.6370 C.3     1  PHE1        0.0534
    213 CG          3.2620  -17.6850   42.4640 C.ar    1  PHE1       -0.0203
    214 CD2         4.4980  -17.0290   42.5880 C.ar    1  PHE1       -0.0042
    215 CD1         2.6010  -17.6470   41.2360 C.ar    1  PHE1       -0.0042
    216 CE2         5.0660  -16.3580   41.4950 C.ar    1  PHE1       -0.0003
    217 CE1         3.1610  -16.9770   40.1370 C.ar    1  PHE1       -0.0003
    218 CZ          4.3900  -16.3280   40.2710 C.ar    1  PHE1       -0.0000
    219 N           9.2740  -19.1650   43.6290 N.3     1  GLU1       -0.1245
    220 CA         10.3630  -18.9720   42.6760 C.3     1  GLU1        0.1565
    221 C          11.6310  -19.4590   43.3460 C.2     1  GLU1        0.2260
    222 O          11.7750  -19.3790   44.5730 O.2     1  GLU1       -0.2867
    223 CB         10.5380  -17.4960   42.3210 C.3     1  GLU1        0.0329
    224 CG          9.2580  -16.7690   41.9530 C.3     1  GLU1        0.0437
    225 CD          9.5320  -15.4810   41.2070 C.2     1  GLU1        0.0504
    226 OE2        10.6380  -14.9160   41.3960 O.co2   1  GLU1       -0.5492
    227 OE1         8.6420  -15.0410   40.4440 O.co2   1  GLU1       -0.5492
    228 N          16.9680   -7.6560   43.7260 N.3     1  ASP1       -0.1227
    229 CA         15.7880   -7.3290   44.4610 C.3     1  ASP1        0.1748
    230 C          14.5550   -7.5080   43.6560 C.2     1  ASP1        0.2596
    231 O          14.5970   -7.7060   42.4450 O.2     1  ASP1       -0.2718
    232 CB         15.8420   -5.9170   45.0380 C.3     1  ASP1        0.0701
    233 CG         16.4100   -5.8860   46.4490 C.2     1  ASP1        0.0523
    234 OD2        16.3580   -6.9300   47.1350 O.co2   1  ASP1       -0.5491
    235 OD1        16.8600   -4.8020   46.8760 O.co2   1  ASP1       -0.5491
    236 N          13.4450   -7.4420   44.3710 N.am    2  GLY2       -0.1943
    237 CA         12.1380   -7.6490   43.7920 C.3     2  GLY2        0.1998
    238 C          11.6690   -8.6620   44.7920 C.2     2  GLY2        0.2480
    239 O          11.3290   -8.3010   45.9170 O.2     2  GLY2       -0.2729
    240 N          11.6530   -9.9360   44.4200 N.am    3  PRO3       -0.2726
    241 CA         11.2270  -10.9840   45.3380 C.3     3  PRO3        0.1402
    242 C          12.4580  -11.5290   46.0420 C.2     3  PRO3        0.2269
    243 O          13.4530  -10.8210   46.2570 O.2     3  PRO3       -0.2865
    244 CB         10.6080  -12.0380   44.4240 C.3     3  PRO3        0.0296
    245 CG         10.8520  -11.5210   42.9920 C.3     3  PRO3        0.0237
    246 CD         11.8840  -10.4660   43.0720 C.3     3  PRO3        0.0939
@<TRIPOS>UNITY_ATOM_ATTR
37 1
charge -1
78 1
charge -1
180 1
charge -1
226 1
charge -1
234 1
charge -1
@<TRIPOS>BOND
     1     1     2    1
     2     2     3    1
     3     2     5    1
     4     3     9   am
     5     3     4    2
     6     5     6    1
     7     6     7    2
     8     6     8   am
     9     9    10    1
    10    10    11    1
    11    10    13    1
    12    11    12    2
    13    13    14    1
    14    13    15    1
    15    16    17    1
    16    17    18    1
    17    17    20    1
    18    18    19    2
    19    20    21    1
    20    21    22    1
    21    22    23    1
    22    23    24    1
    23    25    26    1
    24    26    27    1
    25    26    29    1
    26    27    28    2
    27    29    30    1
    28    31    32    1
    29    32    35    1
    30    32    33    1
    31    33    39   am
    32    33    34    2
    33    35    36    1
    34    36    38   ar
    35    36    37   ar
    36    39    40    1
    37    40    41    1
    38    40    43    1
    39    41    42    2
    40    41    48   am
    41    43    44    1
    42    44    45    1
    43    45    46    1
    44    46    47    1
    45    48    49    1
    46    49    52    1
    47    49    50    1
    48    50    51    2
    49    50    53   am
    50    53    54    1
    51    54    55    1
    52    54    57    1
    53    55    61   am
    54    55    56    2
    55    57    58    1
    56    58    59    2
    57    58    60   am
    58    61    62    1
    59    62    65    1
    60    62    63    1
    61    63    64    2
    62    65    66    1
    63    66    67    1
    64    67    68    1
    65    68    69    2
    66    69    70    1
    67    69    71    1
    68    72    73    1
    69    73    74    1
    70    73    76    1
    71    74    75    2
    72    74    80   am
    73    76    77    1
    74    77    79   ar
    75    77    78   ar
    76    80    81    1
    77    81    84    1
    78    81    82    1
    79    82    87   am
    80    82    83    2
    81    84    85    1
    82    84    86    1
    83    87    88    1
    84    88    89    1
    85    88    91    1
    86    89    90    2
    87    91    92    1
    88    92    93    2
    89    92    94    1
    90    93    95    1
    91    94    96    1
    92    95    96    2
    93    97    98    1
    94    98    99    1
    95    98   101    1
    96    99   100    2
    97    99   106   am
    98   101   102    1
    99   102   103    1
   100   103   104    2
   101   103   105   am
   102   106   107    1
   103   107   110    1
   104   107   108    1
   105   108   114   am
   106   108   109    2
   107   110   111    1
   108   111   112    1
   109   111   113    1
   110   114   120    1
   111   114   115    1
   112   115   118    1
   113   115   116    1
   114   116   117    2
   115   116   121   am
   116   118   119    1
   117   119   120    1
   118   121   122    1
   119   122   123    1
   120   122   125    1
   121   123   126   am
   122   123   124    2
   123   126   127    1
   124   127   128    1
   125   127   130    1
   126   128   137   am
   127   128   129    2
   128   130   131    1
   129   131   133   ar
   130   131   132   ar
   131   132   134   ar
   132   133   135   ar
   133   134   136   ar
   134   135   136   ar
   135   137   138    1
   136   138   141    1
   137   138   139    1
   138   139   140    2
   139   141   142    1
   140   142   143    1
   141   142   144    1
   142   145   146    1
   143   146   149    1
   144   146   147    1
   145   147   148    2
   146   149   150    1
   147   150   151    1
   148   151   152    1
   149   152   153    1
   150   154   155    1
   151   155   158    1
   152   155   156    1
   153   156   157    2
   154   158   159    1
   155   159   160    1
   156   160   161    2
   157   160   162   am
   158   163   164    1
   159   164   167    1
   160   164   165    1
   161   165   166    2
   162   167   168    1
   163   168   169    1
   164   169   170    1
   165   170   171    2
   166   171   173    1
   167   171   172    1
   168   174   175    1
   169   175   178    1
   170   175   176    1
   171   176   177    2
   172   178   179    1
   173   179   181   ar
   174   179   180   ar
   175   182   183    1
   176   183   186    1
   177   183   184    1
   178   184   189   am
   179   184   185    2
   180   186   187    1
   181   186   188    1
   182   189   190    1
   183   190   193    1
   184   190   191    1
   185   191   192    2
   186   193   194    1
   187   194   195    2
   188   194   196    1
   189   195   197    1
   190   196   198    1
   191   197   198    2
   192   199   200    1
   193   200   201    1
   194   200   203    1
   195   201   202    2
   196   203   204    1
   197   204   205    1
   198   205   207   am
   199   205   206    2
   200   208   209    1
   201   209   212    1
   202   209   210    1
   203   210   211    2
   204   212   213    1
   205   213   215   ar
   206   213   214   ar
   207   214   216   ar
   208   215   217   ar
   209   216   218   ar
   210   217   218   ar
   211   219   220    1
   212   220   223    1
   213   220   221    1
   214   221   222    2
   215   223   224    1
   216   224   225    1
   217   225   227   ar
   218   225   226   ar
   219   228   229    1
   220   229   230    1
   221   229   232    1
   222   230   231    2
   223   230   236   am
   224   232   233    1
   225   233   235   ar
   226   233   234   ar
   227   236   237    1
   228   237   238    1
   229   238   240   am
   230   238   239    2
   231   240   246    1
   232   240   241    1
   233   241   244    1
   234   241   242    1
   235   242   243    2
   236   244   245    1
   237   245   246    1
