@<TRIPOS>MOLECULE
./2oec/protein.pdb
 277 268 0 0 0
SMALL
GASTEIGER

@<TRIPOS>ATOM
      1 N          -0.5810   33.5330   -8.5540 N.3     1  VAL1       -0.1231
      2 CA         -0.3330   33.1350   -7.1670 C.3     1  VAL1        0.1678
      3 C           1.1280   32.8050   -6.8870 C.2     1  VAL1        0.2434
      4 O           1.5660   31.6720   -7.0730 O.2     1  VAL1       -0.2733
      5 CB         -1.2340   31.9560   -6.7450 C.3     1  VAL1        0.0265
      6 CG2        -2.6650   32.4360   -6.5170 C.3     1  VAL1        0.0020
      7 CG1        -1.2040   30.8460   -7.7960 C.3     1  VAL1        0.0020
      8 N           1.8900   33.8090   -6.4380 N.am    2  PRO2       -0.2718
      9 CA          3.2810   33.6310   -6.0150 C.3     2  PRO2        0.1535
     10 C           3.2930   32.9210   -4.6770 C.2     2  PRO2        0.2599
     11 O           2.2440   32.8200   -4.0480 O.2     2  PRO2       -0.2715
     12 CB          3.7810   35.0680   -5.8100 C.3     2  PRO2        0.0310
     13 CG          2.6720   35.9710   -6.2420 C.3     2  PRO2        0.0237
     14 CD          1.4150   35.1830   -6.2180 C.3     2  PRO2        0.0939
     15 N           4.4560   32.4550   -4.2400 N.am    3  GLY3       -0.1941
     16 CA          4.5850   31.8830   -2.9100 C.3     3  GLY3        0.2014
     17 C           4.8580   32.9300   -1.8450 C.2     3  GLY3        0.2639
     18 O           4.2580   32.8990   -0.7670 O.2     3  GLY3       -0.2714
     19 N           5.7640   33.8580   -2.1510 N.am    4  ASP4       -0.1959
     20 CA          6.2030   34.8900   -1.2080 C.3     4  ASP4        0.1768
     21 C           5.2710   36.1000   -1.1980 C.2     4  ASP4        0.2462
     22 O           5.0990   36.7650   -2.2190 O.2     4  ASP4       -0.2730
     23 CB          7.6190   35.3440   -1.5670 C.3     4  ASP4        0.0727
     24 CG          8.2570   36.2130   -0.4900 C.2     4  ASP4        0.0526
     25 OD2         7.5310   36.7870    0.3490 O.co2   4  ASP4       -0.5491
     26 OD1         9.5010   36.3220   -0.4870 O.co2   4  ASP4       -0.5491
     27 N           4.6740   36.3950   -0.0350 N.am    5  PRO5       -0.2716
     28 CA          3.7810   37.5480    0.1210 C.3     5  PRO5        0.1536
     29 C           4.4640   38.8580   -0.2540 C.2     5  PRO5        0.2598
     30 O           3.8060   39.7650   -0.7680 O.2     5  PRO5       -0.2715
     31 CB          3.4490   37.5310    1.6240 C.3     5  PRO5        0.0310
     32 CG          4.5170   36.6600    2.2370 C.3     5  PRO5        0.0237
     33 CD          4.7380   35.6090    1.2040 C.3     5  PRO5        0.0939
     34 N           5.7670   38.9480   -0.0050 N.am    6  GLU6       -0.1964
     35 CA          6.5300   40.1500   -0.3250 C.3     6  GLU6        0.1731
     36 C           6.6580   40.3750   -1.8300 C.2     6  GLU6        0.2616
     37 O           6.9800   41.4760   -2.2700 O.2     6  GLU6       -0.2715
     38 CB          7.9160   40.0890    0.3160 C.3     6  GLU6        0.0370
     39 CG          7.9090   40.3010    1.8200 C.3     6  GLU6        0.0440
     40 CD          8.9670   39.4730    2.5260 C.2     6  GLU6        0.0504
     41 OE2         9.7610   40.0530    3.3000 O.co2   6  GLU6       -0.5492
     42 OE1         9.0040   38.2420    2.3000 O.co2   6  GLU6       -0.5492
     43 N           6.4070   39.3320   -2.6130 N.am    7  ARG7       -0.1963
     44 CA          6.5160   39.4330   -4.0630 C.3     7  ARG7        0.1729
     45 C           5.2210   39.8840   -4.7340 C.2     7  ARG7        0.2616
     46 O           5.2180   40.2110   -5.9220 O.2     7  ARG7       -0.2715
     47 CB          6.9560   38.1030   -4.6690 C.3     7  ARG7        0.0348
     48 CG          8.4200   37.7770   -4.4760 C.3     7  ARG7        0.0492
     49 CD          9.0480   37.4620   -5.8160 C.3     7  ARG7        0.2205
     50 NE          9.2380   38.6840   -6.5920 N.pl3   7  ARG7       -0.0865
     51 CZ          9.1780   38.7500   -7.9180 C.cat   7  ARG7        0.5346
     52 NH1         8.9160   37.6620   -8.6270 N.pl3   7  ARG7        0.1354
     53 NH2         9.3670   39.9100   -8.5340 N.pl3   7  ARG7        0.1354
     54 N           4.1270   39.9020   -3.9770 N.am    8  VAL8       -0.1977
     55 CA          2.8110   40.2190   -4.5350 C.3     8  VAL8        0.1596
     56 C           2.7560   41.6250   -5.1280 C.2     8  VAL8        0.2287
     57 O           2.3670   41.8070   -6.2850 O.2     8  VAL8       -0.2864
     58 CB          1.6910   40.0470   -3.4880 C.3     8  VAL8        0.0276
     59 CG1         0.3680   40.5750   -4.0220 C.3     8  VAL8        0.0022
     60 CG2         1.5610   38.5760   -3.0850 C.3     8  VAL8        0.0022
     61 N           4.7220   42.1440   -8.4610 N.3     1  ILE1       -0.1245
     62 CA          4.0320   41.5710   -9.6070 C.3     1  ILE1        0.1561
     63 C           2.8440   42.4340  -10.0160 C.2     1  ILE1        0.2260
     64 O           2.6580   42.7270  -11.1980 O.2     1  ILE1       -0.2867
     65 CB          3.5480   40.1480   -9.3010 C.3     1  ILE1        0.0252
     66 CG1         4.7450   39.2450   -8.9890 C.3     1  ILE1        0.0019
     67 CG2         2.7200   39.6010  -10.4540 C.3     1  ILE1        0.0019
     68 CD1         4.3760   37.9340   -8.3350 C.3     1  ILE1        0.0001
     69 N           0.6240   32.4050   -1.6540 N.3     1  THR1       -0.1203
     70 CA          0.0800   31.1470   -1.1650 C.3     1  THR1        0.1994
     71 C           0.7980   30.6790    0.0920 C.2     1  THR1        0.2618
     72 O           0.2530   29.8900    0.8680 O.2     1  THR1       -0.2717
     73 CB          0.2180   30.0480   -2.2210 C.3     1  THR1        0.1784
     74 OG1         1.6050   29.8790   -2.5390 O.3     1  THR1       -0.2211
     75 CG2        -0.5500   30.4210   -3.4860 C.3     1  THR1        0.0376
     76 N           2.0150   31.1780    0.2940 N.am    2  GLY2       -0.1942
     77 CA          2.9060   30.6400    1.3040 C.3     2  GLY2        0.2014
     78 C           3.6500   29.4710    0.6920 C.2     2  GLY2        0.2639
     79 O           3.4100   29.1140   -0.4650 O.2     2  GLY2       -0.2714
     80 N           4.5570   28.8710    1.4510 N.am    3  ILE3       -0.1963
     81 CA          5.2570   27.6810    0.9800 C.3     3  ILE3        0.1727
     82 C           4.4670   26.4000    1.2760 C.2     3  ILE3        0.2616
     83 O           4.0930   26.1500    2.4130 O.2     3  ILE3       -0.2715
     84 CB          6.6290   27.5550    1.6350 C.3     3  ILE3        0.0290
     85 CG1         7.5480   28.6840    1.1700 C.3     3  ILE3        0.0022
     86 CG2         7.2380   26.1940    1.3260 C.3     3  ILE3        0.0023
     87 CD1         8.7890   28.8220    2.0130 C.3     3  ILE3        0.0001
     88 N           4.2160   25.5850    0.2550 N.am    4  GLY4       -0.1955
     89 CA          3.5960   24.2860    0.4640 C.3     4  GLY4        0.1869
     90 C           2.1300   24.1390    0.0760 C.2     4  GLY4        0.2309
     91 O           1.3500   25.0930    0.1440 O.2     4  GLY4       -0.2863
     92 N           0.5420   29.9200  -11.2180 N.3     1  ARG1       -0.1231
     93 CA          1.5840   30.0240  -10.2080 C.3     1  ARG1        0.1694
     94 C           2.8990   30.4990  -10.8100 C.2     1  ARG1        0.2592
     95 O           3.3230   30.0270  -11.8720 O.2     1  ARG1       -0.2718
     96 CB          1.8090   28.7030   -9.4780 C.3     1  ARG1        0.0321
     97 CG          3.0240   28.7580   -8.5750 C.3     1  ARG1        0.0489
     98 CD          2.9910   27.6990   -7.5030 C.3     1  ARG1        0.2205
     99 NE          3.9370   28.0030   -6.4310 N.pl3   1  ARG1       -0.0865
    100 CZ          3.6880   28.8300   -5.4180 C.cat   1  ARG1        0.5346
    101 NH1         2.5190   29.4540   -5.3250 N.pl3   1  ARG1        0.1354
    102 NH2         4.6110   29.0330   -4.4900 N.pl3   1  ARG1        0.1354
    103 N           3.5330   31.4420  -10.1220 N.am    2  ILE2       -0.1966
    104 CA          4.8690   31.8830  -10.4890 C.3     2  ILE2        0.1727
    105 C           5.8010   31.5730   -9.3220 C.2     2  ILE2        0.2617
    106 O           5.5260   31.9570   -8.1850 O.2     2  ILE2       -0.2715
    107 CB          4.8970   33.3870  -10.8440 C.3     2  ILE2        0.0290
    108 CG1         6.3350   33.8740  -11.0090 C.3     2  ILE2        0.0022
    109 CG2         4.1610   34.2080   -9.7980 C.3     2  ILE2        0.0023
    110 CD1         7.0460   33.2180  -12.1420 C.3     2  ILE2        0.0001
    111 N           6.8850   30.8530   -9.5940 N.am    3  GLY3       -0.1940
    112 CA          7.7730   30.4330   -8.5250 C.3     3  GLY3        0.2014
    113 C           9.2620   30.4890   -8.8160 C.2     3  GLY3        0.2640
    114 O           9.6860   30.9220   -9.8820 O.2     3  GLY3       -0.2714
    115 N          10.0550   30.0750   -7.8320 N.am    4  THR4       -0.1936
    116 CA         11.4780   29.8270   -8.0210 C.3     4  THR4        0.2028
    117 C          11.6810   28.3270   -7.8790 C.2     4  THR4        0.2643
    118 O          10.8670   27.6400   -7.2580 O.2     4  THR4       -0.2714
    119 CB         12.3450   30.5460   -6.9650 C.3     4  THR4        0.1808
    120 OG1        11.9920   30.0810   -5.6560 O.3     4  THR4       -0.2208
    121 CG2        12.1540   32.0520   -7.0400 C.3     4  THR4        0.0379
    122 N          12.7630   27.8090   -8.4380 N.am    5  THR5       -0.1936
    123 CA         12.9420   26.3680   -8.4480 C.3     5  THR5        0.2028
    124 C          14.3990   25.9670   -8.6040 C.2     5  THR5        0.2643
    125 O          15.2050   26.7160   -9.1570 O.2     5  THR5       -0.2714
    126 CB         12.1240   25.7280   -9.5870 C.3     5  THR5        0.1808
    127 OG1        12.3290   24.3120   -9.5900 O.3     5  THR5       -0.2208
    128 CG2        12.5460   26.3080  -10.9410 C.3     5  THR5        0.0379
    129 N          14.7270   24.7810   -8.1020 N.am    6  GLY6       -0.1939
    130 CA         16.0330   24.1990   -8.3270 C.3     6  GLY6        0.2014
    131 C          15.9620   23.1260   -9.3920 C.2     6  GLY6        0.2638
    132 O          15.2370   22.1420   -9.2460 O.2     6  GLY6       -0.2714
    133 N          16.7090   23.3160  -10.4710 N.am    7  ALA7       -0.1977
    134 CA         16.7620   22.3310  -11.5420 C.3     7  ALA7        0.1597
    135 C          17.6360   21.1540  -11.1320 C.2     7  ALA7        0.2287
    136 O          18.5710   21.3090  -10.3470 O.2     7  ALA7       -0.2864
    137 CB         17.2910   22.9620  -12.8110 C.3     7  ALA7        0.0319
    138 N          11.5140   20.9070    1.8830 N.3     1  PHE1       -0.1241
    139 CA         12.6300   21.5400    1.1950 C.3     1  PHE1        0.1605
    140 C          13.8810   20.6720    1.3080 C.2     1  PHE1        0.2264
    141 O          14.7250   20.6730    0.4150 O.2     1  PHE1       -0.2867
    142 CB         12.8900   22.9340    1.7950 C.3     1  PHE1        0.0534
    143 CG         13.9840   23.7140    1.1050 C.ar    1  PHE1       -0.0203
    144 CD2        15.2710   23.7490    1.6280 C.ar    1  PHE1       -0.0042
    145 CD1        13.7200   24.4350   -0.0510 C.ar    1  PHE1       -0.0042
    146 CE2        16.2740   24.4750    0.9970 C.ar    1  PHE1       -0.0003
    147 CE1        14.7150   25.1570   -0.6810 C.ar    1  PHE1       -0.0003
    148 CZ         15.9930   25.1730   -0.1630 C.ar    1  PHE1       -0.0000
    149 N          13.7520   16.5640   -1.0150 N.3     1  GLN1       -0.1245
    150 CA         14.5580   16.9490   -2.1670 C.3     1  GLN1        0.1566
    151 C          15.9440   16.3400   -2.0060 C.2     1  GLN1        0.2260
    152 O          16.9110   16.7720   -2.6310 O.2     1  GLN1       -0.2867
    153 CB         14.6240   18.4710   -2.2970 C.3     1  GLN1        0.0367
    154 CG         13.2470   19.1280   -2.3170 C.3     1  GLN1        0.0905
    155 CD         13.3000   20.5790   -2.7310 C.2     1  GLN1        0.2608
    156 OE1        14.3120   21.0490   -3.2460 O.2     1  GLN1       -0.2717
    157 NE2        12.2070   21.3020   -2.5050 N.am    1  GLN1       -0.0878
    158 N          18.2280   16.4230    0.4420 N.3     1  ARG1       -0.1245
    159 CA         19.3200   17.2160    0.9940 C.3     1  ARG1        0.1563
    160 C          19.7930   16.5520    2.2850 C.2     1  ARG1        0.2260
    161 O          18.9730   16.1760    3.1200 O.2     1  ARG1       -0.2867
    162 CB         18.8560   18.6450    1.2740 C.3     1  ARG1        0.0307
    163 CG         18.6050   19.4720    0.0200 C.3     1  ARG1        0.0489
    164 CD         18.2380   20.9120    0.3550 C.3     1  ARG1        0.2205
    165 NE         18.5250   21.8120   -0.7600 N.pl3   1  ARG1       -0.0865
    166 CZ         17.6060   22.3310   -1.5690 C.cat   1  ARG1        0.5346
    167 NH2        16.3220   22.0560   -1.3860 N.pl3   1  ARG1        0.1354
    168 NH1        17.9720   23.1370   -2.5590 N.pl3   1  ARG1        0.1354
    169 N          12.9730   19.4990  -12.2580 N.3     1  ASN1       -0.1225
    170 CA         13.2240   20.3670  -11.1150 C.3     1  ASN1        0.1785
    171 C          12.4550   19.9700   -9.8560 C.2     1  ASN1        0.2597
    172 O          11.5230   19.1690   -9.9130 O.2     1  ASN1       -0.2718
    173 CB         12.8230   21.7950  -11.4800 C.3     1  ASN1        0.1169
    174 CG         11.3360   21.9230  -11.7760 C.2     1  ASN1        0.2627
    175 OD1        10.7920   21.1980  -12.6080 O.2     1  ASN1       -0.2716
    176 ND2        10.6710   22.8460  -11.0900 N.am    1  ASN1       -0.0877
    177 N          12.8510   20.5510   -8.7250 N.am    2  TYR2       -0.1962
    178 CA         12.0890   20.4410   -7.4830 C.3     2  TYR2        0.1771
    179 C          11.3500   21.7450   -7.2050 C.2     2  TYR2        0.2619
    180 O          11.8660   22.8300   -7.4680 O.2     2  TYR2       -0.2715
    181 CB         13.0120   20.1920   -6.2850 C.3     2  TYR2        0.0574
    182 CG         13.4860   18.7740   -6.0800 C.ar    2  TYR2       -0.0198
    183 CD2        12.5880   17.7430   -5.8340 C.ar    2  TYR2       -0.0009
    184 CD1        14.8420   18.4750   -6.0810 C.ar    2  TYR2       -0.0009
    185 CE2        13.0290   16.4470   -5.6290 C.ar    2  TYR2        0.0417
    186 CE1        15.2930   17.1900   -5.8760 C.ar    2  TYR2        0.0417
    187 CZ         14.3860   16.1790   -5.6510 C.ar    2  TYR2        0.1957
    188 OH         14.8390   14.8910   -5.4500 O.3     2  TYR2       -0.2866
    189 N          10.1490   21.6340   -6.6530 N.am    3  GLU3       -0.1963
    190 CA          9.5070   22.7600   -5.9720 C.3     3  GLU3        0.1731
    191 C           8.4900   22.2230   -4.9630 C.2     3  GLU3        0.2616
    192 O           8.5050   21.0370   -4.6480 O.2     3  GLU3       -0.2715
    193 CB          8.9140   23.7850   -6.9560 C.3     3  GLU3        0.0370
    194 CG          7.9230   23.2220   -7.9540 C.3     3  GLU3        0.0440
    195 CD          6.5730   22.9660   -7.3220 C.2     3  GLU3        0.0504
    196 OE1         5.8300   23.9390   -7.0810 O.co2   3  GLU3       -0.5492
    197 OE2         6.2600   21.7910   -7.0530 O.co2   3  GLU3       -0.5492
    198 N           7.6170   23.0720   -4.4370 N.am    4  MET4       -0.1963
    199 CA          6.8440   22.6510   -3.2720 C.3     4  MET4        0.1736
    200 C           5.3330   22.9010   -3.3020 C.2     4  MET4        0.2616
    201 O           4.6560   22.6290   -2.3140 O.2     4  MET4       -0.2715
    202 CB          7.4610   23.2450   -1.9930 C.3     4  MET4        0.0427
    203 CG          8.9450   22.9170   -1.8260 C.3     4  MET4        0.0599
    204 SD          9.7000   23.4460   -0.2620 S.3     4  MET4       -0.1393
    205 CE          8.5180   22.7980    0.9220 C.3     4  MET4        0.0692
    206 N           4.7970   23.4000   -4.4150 N.am    5  GLU5       -0.1977
    207 CA          3.3770   23.7630   -4.4540 C.3     5  GLU5        0.1600
    208 C           2.5600   23.1810   -5.6110 C.2     5  GLU5        0.2287
    209 O           1.3410   23.0530   -5.5020 O.2     5  GLU5       -0.2864
    210 CB          3.2020   25.2880   -4.4330 C.3     5  GLU5        0.0356
    211 CG          3.6170   25.9470   -3.1220 C.3     5  GLU5        0.0439
    212 CD          5.1160   26.1120   -3.0120 C.2     5  GLU5        0.0504
    213 OE1         5.7960   26.0960   -4.0610 O.co2   5  GLU5       -0.5492
    214 OE2         5.6140   26.2630   -1.8820 O.co2   5  GLU5       -0.5492
    215 N           1.6380   26.5520  -14.3660 N.3     1  MET1       -0.1245
    216 CA          2.8030   26.5990  -13.4970 C.3     1  MET1        0.1570
    217 C           4.0800   26.9840  -14.2450 C.2     1  MET1        0.2261
    218 O           4.4960   26.2950  -15.1680 O.2     1  MET1       -0.2867
    219 CB          2.9770   25.2420  -12.8090 C.3     1  MET1        0.0387
    220 CG          4.3010   25.0620  -12.1110 C.3     1  MET1        0.0595
    221 SD          4.3750   26.0160  -10.5950 S.3     1  MET1       -0.1393
    222 CE          6.0100   25.5860  -10.0250 C.3     1  MET1        0.0692
    223 N           8.2050   28.8770  -13.5720 N.3     1  ALA1       -0.1245
    224 CA          9.1820   29.1560  -12.5230 C.3     1  ALA1        0.1562
    225 C          10.5650   29.5110  -13.0570 C.2     1  ALA1        0.2260
    226 O          11.0240   28.9540  -14.0540 O.2     1  ALA1       -0.2867
    227 CB          9.2790   27.9670  -11.5680 C.3     1  ALA1        0.0290
    228 N          16.6990   29.0930   -9.9090 N.3     1  ILE1       -0.1231
    229 CA         17.6170   29.8750   -9.0820 C.3     1  ILE1        0.1692
    230 C          18.8640   29.0930   -8.6770 C.2     1  ILE1        0.2592
    231 O          19.8030   29.6550   -8.1160 O.2     1  ILE1       -0.2718
    232 CB         16.9330   30.4660   -7.8180 C.3     1  ILE1        0.0266
    233 CG1        16.3020   29.3670   -6.9590 C.3     1  ILE1        0.0019
    234 CG2        15.8980   31.5050   -8.1970 C.3     1  ILE1        0.0020
    235 CD1        15.8170   29.8700   -5.5990 C.3     1  ILE1        0.0001
    236 N          18.8710   27.8000   -8.9700 N.am    2  VAL2       -0.1966
    237 CA         20.0030   26.9480   -8.6350 C.3     2  VAL2        0.1727
    238 C          19.9010   25.6440   -9.4150 C.2     2  VAL2        0.2616
    239 O          18.8080   25.2390   -9.8050 O.2     2  VAL2       -0.2715
    240 CB         20.0460   26.6380   -7.1200 C.3     2  VAL2        0.0290
    241 CG1        18.9150   25.6900   -6.7290 C.3     2  VAL2        0.0023
    242 CG2        21.3940   26.0480   -6.7260 C.3     2  VAL2        0.0023
    243 N          21.0410   25.0010   -9.6520 N.am    3  ASN3       -0.1958
    244 CA         21.0700   23.6830  -10.2770 C.3     3  ASN3        0.1819
    245 C          21.7570   22.6750   -9.3590 C.2     3  ASN3        0.2621
    246 O          22.9260   22.8410   -9.0130 O.2     3  ASN3       -0.2715
    247 CB         21.7790   23.7390  -11.6340 C.3     3  ASN3        0.1195
    248 CG         21.6690   22.4310  -12.4060 C.2     3  ASN3        0.2630
    249 OD1        21.8750   21.3490  -11.8590 O.2     3  ASN3       -0.2716
    250 ND2        21.3360   22.5300  -13.6840 N.am    3  ASN3       -0.0877
    251 N          21.0270   21.6270   -8.9840 N.am    4  ARG4       -0.1977
    252 CA         21.4910   20.6710   -7.9820 C.3     4  ARG4        0.1597
    253 C          22.6170   19.7600   -8.4640 C.2     4  ARG4        0.2287
    254 O          23.2980   19.1420   -7.6530 O.2     4  ARG4       -0.2864
    255 CB         20.3210   19.8270   -7.4570 C.3     4  ARG4        0.0334
    256 CG         19.3200   20.6010   -6.6030 C.3     4  ARG4        0.0492
    257 CD         19.8810   20.8960   -5.2200 C.3     4  ARG4        0.2205
    258 NE         20.2120   19.6590   -4.5180 N.pl3   4  ARG4       -0.0865
    259 CZ         19.3200   18.8940   -3.8990 C.cat   4  ARG4        0.5346
    260 NH2        19.7060   17.7790   -3.2930 N.pl3   4  ARG4        0.1354
    261 NH1        18.0400   19.2420   -3.8880 N.pl3   4  ARG4        0.1354
    262 N          12.7240   34.5350  -12.5730 N.3     1  GLU1       -0.1245
    263 CA         12.0710   35.3740  -11.5690 C.3     1  GLU1        0.1565
    264 C          11.5680   36.7070  -12.1250 C.2     1  GLU1        0.2260
    265 O          10.4450   37.1050  -11.8410 O.2     1  GLU1       -0.2867
    266 CB         12.9340   35.5670  -10.3210 C.3     1  GLU1        0.0329
    267 CG         12.3420   34.8990   -9.0880 C.3     1  GLU1        0.0437
    268 CD         11.3570   35.7940   -8.3360 C.2     1  GLU1        0.0504
    269 OE2        11.8160   36.7590   -7.6850 O.co2   1  GLU1       -0.5492
    270 OE1        10.1350   35.5090   -8.3580 O.co2   1  GLU1       -0.5492
    271 N           8.3670   36.2400  -14.0940 N.3     1  VAL1       -0.1245
    272 CA          7.2690   37.1160  -13.6940 C.3     1  VAL1        0.1561
    273 C           6.6120   37.7860  -14.9040 C.2     1  VAL1        0.2260
    274 O           5.3840   37.8410  -14.9990 O.2     1  VAL1       -0.2867
    275 CB          7.6980   38.1630  -12.6350 C.3     1  VAL1        0.0252
    276 CG1         6.7660   39.3580  -12.6590 C.3     1  VAL1        0.0019
    277 CG2         7.6960   37.5330  -11.2520 C.3     1  VAL1        0.0019
@<TRIPOS>UNITY_ATOM_ATTR
25 1
charge -1
41 1
charge -1
196 1
charge -1
213 1
charge -1
269 1
charge -1
@<TRIPOS>BOND
     1     1     2    1
     2     2     3    1
     3     2     5    1
     4     3     4    2
     5     3     8   am
     6     5     7    1
     7     5     6    1
     8     8    14    1
     9     8     9    1
    10     9    12    1
    11     9    10    1
    12    10    15   am
    13    10    11    2
    14    12    13    1
    15    13    14    1
    16    15    16    1
    17    16    17    1
    18    17    19   am
    19    17    18    2
    20    19    20    1
    21    20    23    1
    22    20    21    1
    23    21    22    2
    24    21    27   am
    25    23    24    1
    26    24    26   ar
    27    24    25   ar
    28    27    28    1
    29    27    33    1
    30    28    29    1
    31    28    31    1
    32    29    30    2
    33    29    34   am
    34    31    32    1
    35    32    33    1
    36    34    35    1
    37    35    36    1
    38    35    38    1
    39    36    43   am
    40    36    37    2
    41    38    39    1
    42    39    40    1
    43    40    42   ar
    44    40    41   ar
    45    43    44    1
    46    44    45    1
    47    44    47    1
    48    45    46    2
    49    45    54   am
    50    47    48    1
    51    48    49    1
    52    49    50    1
    53    50    51    2
    54    51    52    1
    55    51    53    1
    56    54    55    1
    57    55    56    1
    58    55    58    1
    59    56    57    2
    60    58    59    1
    61    58    60    1
    62    61    62    1
    63    62    63    1
    64    62    65    1
    65    63    64    2
    66    65    67    1
    67    65    66    1
    68    66    68    1
    69    69    70    1
    70    70    73    1
    71    70    71    1
    72    71    76   am
    73    71    72    2
    74    73    75    1
    75    73    74    1
    76    76    77    1
    77    77    78    1
    78    78    79    2
    79    78    80   am
    80    80    81    1
    81    81    82    1
    82    81    84    1
    83    82    88   am
    84    82    83    2
    85    84    85    1
    86    84    86    1
    87    85    87    1
    88    88    89    1
    89    89    90    1
    90    90    91    2
    91    92    93    1
    92    93    94    1
    93    93    96    1
    94    94    95    2
    95    94   103   am
    96    96    97    1
    97    97    98    1
    98    98    99    1
    99    99   100    2
   100   100   101    1
   101   100   102    1
   102   103   104    1
   103   104   107    1
   104   104   105    1
   105   105   111   am
   106   105   106    2
   107   107   108    1
   108   107   109    1
   109   108   110    1
   110   111   112    1
   111   112   113    1
   112   113   114    2
   113   113   115   am
   114   115   116    1
   115   116   117    1
   116   116   119    1
   117   117   122   am
   118   117   118    2
   119   119   121    1
   120   119   120    1
   121   122   123    1
   122   123   126    1
   123   123   124    1
   124   124   125    2
   125   124   129   am
   126   126   128    1
   127   126   127    1
   128   129   130    1
   129   130   131    1
   130   131   133   am
   131   131   132    2
   132   133   134    1
   133   134   137    1
   134   134   135    1
   135   135   136    2
   136   138   139    1
   137   139   140    1
   138   139   142    1
   139   140   141    2
   140   142   143    1
   141   143   145   ar
   142   143   144   ar
   143   144   146   ar
   144   145   147   ar
   145   146   148   ar
   146   147   148   ar
   147   149   150    1
   148   150   153    1
   149   150   151    1
   150   151   152    2
   151   153   154    1
   152   154   155    1
   153   155   156    2
   154   155   157   am
   155   158   159    1
   156   159   162    1
   157   159   160    1
   158   160   161    2
   159   162   163    1
   160   163   164    1
   161   164   165    1
   162   165   166    2
   163   166   168    1
   164   166   167    1
   165   169   170    1
   166   170   173    1
   167   170   171    1
   168   171   172    2
   169   171   177   am
   170   173   174    1
   171   174   175    2
   172   174   176   am
   173   177   178    1
   174   178   179    1
   175   178   181    1
   176   179   180    2
   177   179   189   am
   178   181   182    1
   179   182   184   ar
   180   182   183   ar
   181   183   185   ar
   182   184   186   ar
   183   185   187   ar
   184   186   187   ar
   185   187   188    1
   186   189   190    1
   187   190   193    1
   188   190   191    1
   189   191   192    2
   190   191   198   am
   191   193   194    1
   192   194   195    1
   193   195   196   ar
   194   195   197   ar
   195   198   199    1
   196   199   200    1
   197   199   202    1
   198   200   206   am
   199   200   201    2
   200   202   203    1
   201   203   204    1
   202   204   205    1
   203   206   207    1
   204   207   208    1
   205   207   210    1
   206   208   209    2
   207   210   211    1
   208   211   212    1
   209   212   213   ar
   210   212   214   ar
   211   215   216    1
   212   216   217    1
   213   216   219    1
   214   217   218    2
   215   219   220    1
   216   220   221    1
   217   221   222    1
   218   223   224    1
   219   224   225    1
   220   224   227    1
   221   225   226    2
   222   228   229    1
   223   229   230    1
   224   229   232    1
   225   230   236   am
   226   230   231    2
   227   232   234    1
   228   232   233    1
   229   233   235    1
   230   236   237    1
   231   237   238    1
   232   237   240    1
   233   238   239    2
   234   238   243   am
   235   240   241    1
   236   240   242    1
   237   243   244    1
   238   244   247    1
   239   244   245    1
   240   245   246    2
   241   245   251   am
   242   247   248    1
   243   248   250   am
   244   248   249    2
   245   251   252    1
   246   252   253    1
   247   252   255    1
   248   253   254    2
   249   255   256    1
   250   256   257    1
   251   257   258    1
   252   258   259    2
   253   259   261    1
   254   259   260    1
   255   262   263    1
   256   263   264    1
   257   263   266    1
   258   264   265    2
   259   266   267    1
   260   267   268    1
   261   268   270   ar
   262   268   269   ar
   263   271   272    1
   264   272   273    1
   265   272   275    1
   266   273   274    2
   267   275   276    1
   268   275   277    1
