@<TRIPOS>MOLECULE
./1fth/protein.pdb
 203 200 0 0 0
SMALL
GASTEIGER

@<TRIPOS>ATOM
      1 N          15.4010   18.1980   -5.2150 N.3     1  ARG1       -0.1245
      2 CA         15.1350   16.7780   -5.4150 C.3     1  ARG1        0.1563
      3 C          13.6640   16.4630   -5.1420 C.2     1  ARG1        0.2260
      4 O          13.0380   15.6910   -5.8700 O.2     1  ARG1       -0.2867
      5 CB         16.0380   15.9590   -4.4820 C.3     1  ARG1        0.0307
      6 CG         15.8140   14.4480   -4.4900 C.3     1  ARG1        0.0489
      7 CD         16.2740   13.7750   -5.7780 C.3     1  ARG1        0.2205
      8 NE         16.1210   12.3230   -5.6950 N.pl3   1  ARG1       -0.0865
      9 CZ         16.0640   11.5090   -6.7460 C.cat   1  ARG1        0.5346
     10 NH1        16.1530   11.9970   -7.9760 N.pl3   1  ARG1        0.1354
     11 NH2        15.8890   10.2060   -6.5690 N.pl3   1  ARG1        0.1354
     12 N          10.0930   14.6600   -7.8720 N.3     1  LEU1       -0.1245
     13 CA          9.4350   13.3790   -7.6170 C.3     1  LEU1        0.1561
     14 C           7.9070   13.4600   -7.6460 C.2     1  LEU1        0.2260
     15 O           7.3350   14.5470   -7.6020 O.2     1  LEU1       -0.2867
     16 CB          9.9100   12.8160   -6.2680 C.3     1  LEU1        0.0270
     17 CG         11.4290   12.6160   -6.1420 C.3     1  LEU1        0.0019
     18 CD2        11.7770   12.1140   -4.7400 C.3     1  LEU1        0.0001
     19 CD1        11.9100   11.6240   -7.1960 C.3     1  LEU1        0.0001
     20 N           6.4780    8.3800   -3.6470 N.3     1  ARG1       -0.1231
     21 CA          7.9270    8.5280   -3.5530 C.3     1  ARG1        0.1694
     22 C           8.3110    9.9330   -3.0840 C.2     1  ARG1        0.2591
     23 O           9.3180   10.1120   -2.3970 O.2     1  ARG1       -0.2718
     24 CB          8.5810    8.2100   -4.9060 C.3     1  ARG1        0.0321
     25 CG          9.5430    7.0250   -4.8510 C.3     1  ARG1        0.0489
     26 CD          9.7970    6.4090   -6.2220 C.3     1  ARG1        0.2205
     27 NE          8.5600    5.9450   -6.8460 N.pl3   1  ARG1       -0.0865
     28 CZ          8.5030    5.1450   -7.9070 C.cat   1  ARG1        0.5346
     29 NH2         7.3260    4.7830   -8.4010 N.pl3   1  ARG1        0.1354
     30 NH1         9.6180    4.6980   -8.4700 N.pl3   1  ARG1        0.1354
     31 N           7.4930   10.9200   -3.4450 N.am    2  GLN2       -0.1979
     32 CA          7.7280   12.3100   -3.0630 C.3     2  GLN2        0.1601
     33 C           7.6070   12.4900   -1.5380 C.2     2  GLN2        0.2287
     34 O           8.4150   13.1880   -0.9210 O.2     2  GLN2       -0.2864
     35 CB          6.7210   13.2300   -3.7800 C.3     2  GLN2        0.0394
     36 CG          7.0930   14.7090   -3.7500 C.3     2  GLN2        0.0908
     37 CD          6.1390   15.5900   -4.5520 C.2     2  GLN2        0.2608
     38 OE1         6.5110   16.6770   -4.9850 O.2     2  GLN2       -0.2717
     39 NE2         4.9060   15.1270   -4.7430 N.am    2  GLN2       -0.0878
     40 N           7.8990   10.0180    0.7550 N.3     1  GLU1       -0.1231
     41 CA          8.9260    9.1960    1.4090 C.3     1  GLU1        0.1697
     42 C          10.2910    9.8920    1.4600 C.2     1  GLU1        0.2592
     43 O          11.0750    9.6610    2.3880 O.2     1  GLU1       -0.2718
     44 CB          9.0700    7.8360    0.7020 C.3     1  GLU1        0.0343
     45 CG         10.3210    7.0490    1.1230 C.3     1  GLU1        0.0437
     46 CD         10.3080    6.6550    2.5900 C.2     1  GLU1        0.0504
     47 OE2        11.4050    6.5340    3.1850 O.co2   1  GLU1       -0.5492
     48 OE1         9.2010    6.4570    3.1430 O.co2   1  GLU1       -0.5492
     49 N          10.5890   10.7230    0.4610 N.am    2  TYR2       -0.1962
     50 CA         11.8610   11.4430    0.4500 C.3     2  TYR2        0.1771
     51 C          11.9190   12.4560    1.6020 C.2     2  TYR2        0.2619
     52 O          12.9300   12.5480    2.3030 O.2     2  TYR2       -0.2715
     53 CB         12.0770   12.1670   -0.8940 C.3     2  TYR2        0.0574
     54 CG         13.3430   13.0090   -0.9340 C.ar    2  TYR2       -0.0198
     55 CD2        13.3430   14.3340   -0.4890 C.ar    2  TYR2       -0.0009
     56 CD1        14.5510   12.4670   -1.3820 C.ar    2  TYR2       -0.0009
     57 CE2        14.5200   15.1020   -0.4900 C.ar    2  TYR2        0.0417
     58 CE1        15.7260   13.2190   -1.3830 C.ar    2  TYR2        0.0417
     59 CZ         15.7070   14.5340   -0.9360 C.ar    2  TYR2        0.1957
     60 OH         16.8770   15.2650   -0.9270 O.3     2  TYR2       -0.2866
     61 N          10.8360   13.2130    1.7870 N.am    3  LEU3       -0.1963
     62 CA         10.7500   14.2080    2.8590 C.3     3  LEU3        0.1728
     63 C          10.8240   13.5070    4.2210 C.2     3  LEU3        0.2616
     64 O          11.5960   13.9060    5.0940 O.2     3  LEU3       -0.2715
     65 CB          9.4360   14.9990    2.7430 C.3     3  LEU3        0.0311
     66 CG          9.0620   15.9980    3.8500 C.3     3  LEU3        0.0022
     67 CD2        10.1710   17.0290    4.0390 C.3     3  LEU3        0.0001
     68 CD1         7.7520   16.6850    3.4840 C.3     3  LEU3        0.0001
     69 N          10.0290   12.4530    4.3900 N.am    4  ALA4       -0.1963
     70 CA         10.0100   11.6900    5.6410 C.3     4  ALA4        0.1728
     71 C          11.3960   11.1530    6.0140 C.2     4  ALA4        0.2617
     72 O          11.8070   11.2280    7.1750 O.2     4  ALA4       -0.2715
     73 CB          9.0240   10.5390    5.5270 C.3     4  ALA4        0.0334
     74 N          12.1090   10.6030    5.0330 N.am    5  GLY5       -0.1940
     75 CA         13.4410   10.0680    5.2970 C.3     5  GLY5        0.2014
     76 C          14.4390   11.1110    5.7870 C.2     5  GLY5        0.2639
     77 O          15.2220   10.8580    6.7110 O.2     5  GLY5       -0.2714
     78 N          14.4290   12.2900    5.1680 N.am    6  ARG6       -0.1963
     79 CA         15.3460   13.3510    5.5730 C.3     6  ARG6        0.1729
     80 C          15.0200   13.8500    6.9940 C.2     6  ARG6        0.2616
     81 O          15.9130   14.2170    7.7620 O.2     6  ARG6       -0.2715
     82 CB         15.3020   14.5010    4.5540 C.3     6  ARG6        0.0348
     83 CG         16.4210   14.4460    3.4720 C.3     6  ARG6        0.0492
     84 CD         16.4870   13.1160    2.6800 C.3     6  ARG6        0.2205
     85 NE         17.6420   13.0710    1.7640 N.pl3   6  ARG6       -0.0865
     86 CZ         17.9820   12.0170    1.0180 C.cat   6  ARG6        0.5346
     87 NH2        17.2660   10.8990    1.0660 N.pl3   6  ARG6        0.1354
     88 NH1        19.0420   12.0820    0.2080 N.pl3   6  ARG6        0.1354
     89 N          13.7400   13.8510    7.3450 N.am    7  TRP7       -0.1974
     90 CA         13.3200   14.2830    8.6830 C.3     7  TRP7        0.1637
     91 C          13.8020   13.2910    9.7630 C.2     7  TRP7        0.2290
     92 O          14.3340   13.6950   10.8160 O.2     7  TRP7       -0.2864
     93 CB         11.7870   14.4300    8.7040 C.3     7  TRP7        0.0539
     94 CG         11.1420   14.2240   10.0350 C.2     7  TRP7       -0.0137
     95 CD1        10.9230   13.0290   10.6650 C.2     7  TRP7        0.0907
     96 CD2        10.6330   15.2350   10.9060 C.3     7  TRP7        0.0819
     97 NE1        10.3100   13.2350   11.8730 N.2     7  TRP7       -0.2482
     98 CE2        10.1170   14.5810   12.0480 C.2     7  TRP7        0.0665
     99 CE3        10.5580   16.6300   10.8330 C.2     7  TRP7       -0.0164
    100 CZ2         9.5360   15.2750   13.1110 C.2     7  TRP7        0.0153
    101 CZ3         9.9820   17.3200   11.8890 C.2     7  TRP7       -0.0038
    102 CH2         9.4770   16.6420   13.0130 C.2     7  TRP7        0.0009
    103 N          16.3380   11.0760    9.5710 N.3     1  ALA1       -0.1245
    104 CA         17.7990   11.0540    9.6940 C.3     1  ALA1        0.1562
    105 C          18.3500   12.2110   10.5390 C.2     1  ALA1        0.2260
    106 O          19.3020   12.0350   11.3130 O.2     1  ALA1       -0.2867
    107 CB         18.4390   11.0780    8.3050 C.3     1  ALA1        0.0290
    108 N          21.4720   16.0510    3.8370 N.3     1  VAL1       -0.1231
    109 CA         21.6710   14.6610    3.3920 C.3     1  VAL1        0.1692
    110 C          21.4690   14.4740    1.8650 C.2     1  VAL1        0.2592
    111 O          20.3660   14.6510    1.3610 O.2     1  VAL1       -0.2718
    112 CB         20.6840   13.7000    4.1410 C.3     1  VAL1        0.0266
    113 CG1        20.9180   12.2550    3.7250 C.3     1  VAL1        0.0020
    114 CG2        20.8530   13.8460    5.6530 C.3     1  VAL1        0.0020
    115 N          22.5320   14.1130    1.1420 N.am    2  LEU2       -0.1966
    116 CA         22.4670   13.8900   -0.3180 C.3     2  LEU2        0.1728
    117 C          22.7820   12.4120   -0.6280 C.2     2  LEU2        0.2616
    118 O          22.8690   11.5980    0.2910 O.2     2  LEU2       -0.2715
    119 CB         23.4750   14.8100   -1.0390 C.3     2  LEU2        0.0311
    120 CG         23.3850   16.3240   -0.7690 C.3     2  LEU2        0.0022
    121 CD1        24.4950   17.0610   -1.5310 C.3     2  LEU2        0.0001
    122 CD2        22.0170   16.8510   -1.1970 C.3     2  LEU2        0.0001
    123 N          22.9490   12.0630   -1.9090 N.am    3  ASN3       -0.1972
    124 CA         23.2570   10.6770   -2.3090 C.3     3  ASN3        0.1688
    125 C          24.6220   10.6030   -3.0190 C.2     3  ASN3        0.2292
    126 O          24.8820   11.3780   -3.9450 O.2     3  ASN3       -0.2864
    127 CB         22.1600   10.1340   -3.2420 C.3     3  ASN3        0.1181
    128 CG         20.8520    9.8510   -2.5120 C.2     3  ASN3        0.2629
    129 OD1        19.8780   10.5920   -2.6440 O.2     3  ASN3       -0.2716
    130 ND2        20.8230    8.7720   -1.7500 N.am    3  ASN3       -0.0877
    131 N          24.8650    5.7880   -4.9020 N.3     1  GLY1       -0.1210
    132 CA         23.4400    5.9370   -4.6480 C.3     1  GLY1        0.1956
    133 C          22.9660    5.8790   -3.2010 C.2     1  GLY1        0.2612
    134 O          21.7610    5.8730   -2.9570 O.2     1  GLY1       -0.2717
    135 N          23.8880    5.8480   -2.2410 N.am    2  ALA2       -0.1966
    136 CA         23.5130    5.7790   -0.8230 C.3     2  ALA2        0.1713
    137 C          23.4820    7.1490   -0.1250 C.2     2  ALA2        0.2458
    138 O          24.3160    8.0180   -0.3990 O.2     2  ALA2       -0.2730
    139 CB         24.4680    4.8440   -0.0840 C.3     2  ALA2        0.0333
    140 N          22.5210    7.3520    0.7990 N.am    3  PRO3       -0.2716
    141 CA         22.3940    8.6230    1.5330 C.3     3  PRO3        0.1536
    142 C          23.5710    8.8750    2.4840 C.2     3  PRO3        0.2598
    143 O          24.0840    7.9310    3.1010 O.2     3  PRO3       -0.2715
    144 CB         21.0540    8.4680    2.2690 C.3     3  PRO3        0.0310
    145 CG         20.9730    6.9930    2.5090 C.3     3  PRO3        0.0237
    146 CD         21.4560    6.4110    1.1850 C.3     3  PRO3        0.0939
    147 N          23.9980   10.1390    2.5900 N.am    4  TYR4       -0.1974
    148 CA         25.1260   10.5130    3.4560 C.3     4  TYR4        0.1639
    149 C          25.0560   11.9890    3.8810 C.2     4  TYR4        0.2290
    150 O          24.4610   12.8080    3.1810 O.2     4  TYR4       -0.2864
    151 CB         26.4570   10.2530    2.7230 C.3     4  TYR4        0.0560
    152 CG         26.8240   11.3170    1.6960 C.ar    4  TYR4       -0.0198
    153 CD2        27.7480   12.3230    1.9970 C.ar    4  TYR4       -0.0009
    154 CD1        26.2210   11.3370    0.4370 C.ar    4  TYR4       -0.0009
    155 CE2        28.0600   13.3300    1.0630 C.ar    4  TYR4        0.0417
    156 CE1        26.5240   12.3410   -0.5040 C.ar    4  TYR4        0.0417
    157 CZ         27.4420   13.3320   -0.1830 C.ar    4  TYR4        0.1957
    158 OH         27.7280   14.3310   -1.1010 O.3     4  TYR4       -0.2866
    159 N          25.5070    6.1500    8.5540 N.3     1  LEU1       -0.1231
    160 CA         24.0410    6.3080    8.4440 C.3     1  LEU1        0.1693
    161 C          23.3160    5.2610    7.5790 C.2     1  LEU1        0.2593
    162 O          23.8380    4.8360    6.5390 O.2     1  LEU1       -0.2718
    163 CB         23.7090    7.7030    7.8670 C.3     1  LEU1        0.0284
    164 CG         22.2730    7.9270    7.3540 C.3     1  LEU1        0.0019
    165 CD2        21.3470    8.1450    8.5340 C.3     1  LEU1        0.0001
    166 CD1        22.2050    9.1280    6.4160 C.3     1  LEU1        0.0001
    167 N          22.1090    4.8580    8.0030 N.am    2  SER2       -0.1938
    168 CA         21.2810    3.9040    7.2390 C.3     2  SER2        0.2055
    169 C          19.7780    4.2320    7.3720 C.2     2  SER2        0.2643
    170 O          19.3120    4.5600    8.4720 O.2     2  SER2       -0.2714
    171 CB         21.5390    2.4660    7.7020 C.3     2  SER2        0.2130
    172 OG         20.9460    1.5300    6.8150 O.3     2  SER2       -0.2179
    173 N          19.0340    4.1330    6.2590 N.am    3  ILE3       -0.1963
    174 CA         17.5790    4.4260    6.2230 C.3     3  ILE3        0.1727
    175 C          16.7660    3.3040    5.5350 C.2     3  ILE3        0.2617
    176 O          17.2460    2.7020    4.5680 O.2     3  ILE3       -0.2715
    177 CB         17.2940    5.7410    5.4440 C.3     3  ILE3        0.0290
    178 CG1        18.0810    6.9090    6.0530 C.3     3  ILE3        0.0022
    179 CG2        15.7990    6.0460    5.4580 C.3     3  ILE3        0.0023
    180 CD1        17.8580    8.2490    5.3200 C.3     3  ILE3        0.0001
    181 N          15.5480    3.0280    6.0190 N.am    4  SER4       -0.1936
    182 CA         14.6800    1.9750    5.4310 C.3     4  SER4        0.2055
    183 C          13.1660    2.2870    5.5790 C.2     4  SER4        0.2643
    184 O          12.7700    3.0180    6.4870 O.2     4  SER4       -0.2714
    185 CB         14.9920    0.6110    6.0830 C.3     4  SER4        0.2130
    186 OG         14.3050   -0.4520    5.4310 O.3     4  SER4       -0.2179
    187 N          12.3200    1.7260    4.7100 N.am    5  HIS5       -0.1973
    188 CA         10.8740    2.0110    4.7860 C.3     5  HIS5        0.1656
    189 C           9.9220    0.9660    4.1810 C.2     5  HIS5        0.2291
    190 O          10.3280    0.1400    3.3600 O.2     5  HIS5       -0.2864
    191 CB         10.5710    3.3270    4.0640 C.3     5  HIS5        0.0771
    192 CG         10.7390    3.2380    2.5760 C.ar    5  HIS5        0.0820
    193 ND1        11.9560    3.4150    1.9520 N.ar    5  HIS5       -0.2267
    194 CD2         9.8670    2.8800    1.6000 C.ar    5  HIS5        0.1154
    195 CE1        11.8280    3.1650    0.6600 C.ar    5  HIS5        0.1986
    196 NE2        10.5710    2.8370    0.4200 N.ar    5  HIS5       -0.2212
    197 N           8.8230    4.5850    8.3900 N.3     1  VAL1       -0.1245
    198 CA         10.2080    4.8720    7.9800 C.3     1  VAL1        0.1561
    199 C          11.0850    4.8150    9.2490 C.2     1  VAL1        0.2260
    200 O          10.6310    5.2190   10.3240 O.2     1  VAL1       -0.2867
    201 CB         10.3560    6.2820    7.3280 C.3     1  VAL1        0.0252
    202 CG2        10.0980    7.3800    8.3510 C.3     1  VAL1        0.0019
    203 CG1        11.7410    6.4340    6.7290 C.3     1  VAL1        0.0019
@<TRIPOS>UNITY_ATOM_ATTR
47 1
charge -1
@<TRIPOS>BOND
     1     1     2    1
     2     2     3    1
     3     2     5    1
     4     3     4    2
     5     5     6    1
     6     6     7    1
     7     7     8    1
     8     8     9    2
     9     9    10    1
    10     9    11    1
    11    12    13    1
    12    13    14    1
    13    13    16    1
    14    14    15    2
    15    16    17    1
    16    17    19    1
    17    17    18    1
    18    20    21    1
    19    21    24    1
    20    21    22    1
    21    22    31   am
    22    22    23    2
    23    24    25    1
    24    25    26    1
    25    26    27    1
    26    27    28    2
    27    28    30    1
    28    28    29    1
    29    31    32    1
    30    32    35    1
    31    32    33    1
    32    33    34    2
    33    35    36    1
    34    36    37    1
    35    37    38    2
    36    37    39   am
    37    40    41    1
    38    41    44    1
    39    41    42    1
    40    42    49   am
    41    42    43    2
    42    44    45    1
    43    45    46    1
    44    46    48   ar
    45    46    47   ar
    46    49    50    1
    47    50    53    1
    48    50    51    1
    49    51    61   am
    50    51    52    2
    51    53    54    1
    52    54    56   ar
    53    54    55   ar
    54    55    57   ar
    55    56    58   ar
    56    57    59   ar
    57    58    59   ar
    58    59    60    1
    59    61    62    1
    60    62    65    1
    61    62    63    1
    62    63    69   am
    63    63    64    2
    64    65    66    1
    65    66    68    1
    66    66    67    1
    67    69    70    1
    68    70    73    1
    69    70    71    1
    70    71    74   am
    71    71    72    2
    72    74    75    1
    73    75    76    1
    74    76    78   am
    75    76    77    2
    76    78    79    1
    77    79    82    1
    78    79    80    1
    79    80    89   am
    80    80    81    2
    81    82    83    1
    82    83    84    1
    83    84    85    1
    84    85    86    2
    85    86    88    1
    86    86    87    1
    87    89    90    1
    88    90    93    1
    89    90    91    1
    90    91    92    2
    91    93    94    1
    92    94    95    2
    93    94    96    1
    94    95    97    1
    95    96    99    1
    96    96    98    1
    97    97    98    2
    98    98   100    1
    99    99   101    2
   100   100   102    2
   101   101   102    1
   102   103   104    1
   103   104   107    1
   104   104   105    1
   105   105   106    2
   106   108   109    1
   107   109   110    1
   108   109   112    1
   109   110   115   am
   110   110   111    2
   111   112   113    1
   112   112   114    1
   113   115   116    1
   114   116   119    1
   115   116   117    1
   116   117   123   am
   117   117   118    2
   118   119   120    1
   119   120   121    1
   120   120   122    1
   121   123   124    1
   122   124   127    1
   123   124   125    1
   124   125   126    2
   125   127   128    1
   126   128   129    2
   127   128   130   am
   128   131   132    1
   129   132   133    1
   130   133   134    2
   131   133   135   am
   132   135   136    1
   133   136   137    1
   134   136   139    1
   135   137   138    2
   136   137   140   am
   137   140   146    1
   138   140   141    1
   139   141   144    1
   140   141   142    1
   141   142   147   am
   142   142   143    2
   143   144   145    1
   144   145   146    1
   145   147   148    1
   146   148   151    1
   147   148   149    1
   148   149   150    2
   149   151   152    1
   150   152   154   ar
   151   152   153   ar
   152   153   155   ar
   153   154   156   ar
   154   155   157   ar
   155   156   157   ar
   156   157   158    1
   157   159   160    1
   158   160   161    1
   159   160   163    1
   160   161   162    2
   161   161   167   am
   162   163   164    1
   163   164   166    1
   164   164   165    1
   165   167   168    1
   166   168   169    1
   167   168   171    1
   168   169   173   am
   169   169   170    2
   170   171   172    1
   171   173   174    1
   172   174   177    1
   173   174   175    1
   174   175   176    2
   175   175   181   am
   176   177   179    1
   177   177   178    1
   178   178   180    1
   179   181   182    1
   180   182   183    1
   181   182   185    1
   182   183   187   am
   183   183   184    2
   184   185   186    1
   185   187   188    1
   186   188   191    1
   187   188   189    1
   188   189   190    2
   189   191   192    1
   190   192   194   ar
   191   192   193   ar
   192   193   195   ar
   193   194   196   ar
   194   195   196   ar
   195   197   198    1
   196   198   201    1
   197   198   199    1
   198   199   200    2
   199   201   203    1
   200   201   202    1
