@<TRIPOS>MOLECULE
./1jcl/protein.pdb
 202 190 0 0 0
SMALL
GASTEIGER

@<TRIPOS>ATOM
      1 N          16.6730    9.7320   53.7470 N.3     1  ASP1       -0.1241
      2 CA         17.1560    9.7270   52.3570 C.3     1  ASP1        0.1616
      3 C          17.1230    8.2540   51.9440 C.2     1  ASP1        0.2264
      4 O          18.0400    7.4970   52.2420 O.2     1  ASP1       -0.2867
      5 CB         18.5940   10.2860   52.2380 C.3     1  ASP1        0.0687
      6 CG         18.7130   11.7820   52.4190 C.2     1  ASP1        0.0522
      7 OD2        17.7180   12.4520   52.7060 O.co2   1  ASP1       -0.5491
      8 OD1        19.9020   12.2820   52.2690 O.co2   1  ASP1       -0.5491
      9 N          17.5260    5.0790   50.0260 N.3     1  THR1       -0.1203
     10 CA         18.6870    4.9060   49.1490 C.3     1  THR1        0.1994
     11 C          18.6890    3.6030   48.3850 C.2     1  THR1        0.2619
     12 O          18.3660    2.5450   48.9260 O.2     1  THR1       -0.2717
     13 CB         19.9420    4.9680   50.0430 C.3     1  THR1        0.1784
     14 OG1        19.9430    6.2810   50.6710 O.3     1  THR1       -0.2211
     15 CG2        21.2100    4.7960   49.2850 C.3     1  THR1        0.0376
     16 N          19.1700    3.6610   47.1470 N.am    2  THR2       -0.1938
     17 CA         19.6640    2.4600   46.4680 C.3     2  THR2        0.2028
     18 C          20.9170    2.8970   45.7100 C.2     2  THR2        0.2642
     19 O          20.8710    3.8150   44.9110 O.2     2  THR2       -0.2714
     20 CB         18.6460    1.8060   45.5470 C.3     2  THR2        0.1808
     21 OG1        19.1980    0.5370   45.1180 O.3     2  THR2       -0.2208
     22 CG2        18.2230    2.5680   44.3190 C.3     2  THR2        0.0379
     23 N          22.0290    2.2220   46.0270 N.am    3  LEU3       -0.1963
     24 CA         23.3240    2.4860   45.4300 C.3     3  LEU3        0.1728
     25 C          24.0140    1.1400   45.1750 C.2     3  LEU3        0.2616
     26 O          24.9400    0.7660   45.8800 O.2     3  LEU3       -0.2715
     27 CB         24.1710    3.3940   46.2960 C.3     3  LEU3        0.0311
     28 CG         23.6670    4.8150   46.5210 C.3     3  LEU3        0.0022
     29 CD2        24.4180    5.5080   47.6490 C.3     3  LEU3        0.0001
     30 CD1        23.7450    5.6300   45.2330 C.3     3  LEU3        0.0001
     31 N          23.5620    0.4310   44.1720 N.am    4  ASN4       -0.1972
     32 CA         24.1100   -0.8930   43.8550 C.3     4  ASN4        0.1688
     33 C          24.4790   -0.9920   42.4070 C.2     4  ASN4        0.2292
     34 O          23.9480   -0.2990   41.5630 O.2     4  ASN4       -0.2864
     35 CB         23.0370   -1.9540   44.0350 C.3     4  ASN4        0.1181
     36 CG         22.4430   -1.9870   45.4190 C.2     4  ASN4        0.2629
     37 OD1        23.1070   -2.2830   46.4240 O.2     4  ASN4       -0.2716
     38 ND2        21.1470   -1.7230   45.5150 N.am    4  ASN4       -0.0877
     39 N          18.0670    8.7720   47.4980 N.3     1  CYS1       -0.1235
     40 CA         19.4560    8.9000   47.1170 C.3     1  CYS1        0.1677
     41 C          19.8040    7.7480   46.1870 C.2     1  CYS1        0.2270
     42 O          19.6140    6.5750   46.5030 O.2     1  CYS1       -0.2867
     43 CB         20.3460    8.8760   48.3580 C.3     1  CYS1        0.0956
     44 SG         22.1020    9.1590   47.9530 S.3     1  CYS1       -0.0801
     45 N          25.3340   10.8500   44.8470 N.3     1  VAL1       -0.1245
     46 CA         26.6710   10.6960   45.4150 C.3     1  VAL1        0.1561
     47 C          27.7270   11.0010   44.3480 C.2     1  VAL1        0.2260
     48 O          27.5380   10.6690   43.1760 O.2     1  VAL1       -0.2867
     49 CB         26.8880    9.2950   45.9840 C.3     1  VAL1        0.0252
     50 CG2        26.0190    9.0470   47.2060 C.3     1  VAL1        0.0019
     51 CG1        26.6600    8.1780   44.9750 C.3     1  VAL1        0.0019
     52 N          32.5600    8.7350   44.7840 N.3     1  PHE1       -0.1241
     53 CA         31.9670    7.6780   45.5870 C.3     1  PHE1        0.1605
     54 C          32.2310    6.2950   45.0340 C.2     1  PHE1        0.2264
     55 O          32.0590    6.0910   43.8080 O.2     1  PHE1       -0.2867
     56 CB         30.4490    7.9250   45.6880 C.3     1  PHE1        0.0534
     57 CG         29.6670    6.9360   46.5340 C.ar    1  PHE1       -0.0203
     58 CD2        29.3310    7.2870   47.8440 C.ar    1  PHE1       -0.0042
     59 CD1        29.2450    5.6880   46.0830 C.ar    1  PHE1       -0.0042
     60 CE2        28.5960    6.4320   48.6430 C.ar    1  PHE1       -0.0003
     61 CE1        28.5080    4.8410   46.8620 C.ar    1  PHE1       -0.0003
     62 CZ         28.1940    5.1970   48.1390 C.ar    1  PHE1       -0.0000
     63 N          25.9680   14.2490   47.8470 N.3     1  ASP1       -0.1241
     64 CA         26.7160   13.6940   48.9720 C.3     1  ASP1        0.1616
     65 C          28.0800   13.2750   48.4070 C.2     1  ASP1        0.2264
     66 O          28.1640   12.2900   47.6890 O.2     1  ASP1       -0.2867
     67 CB         25.9770   12.5450   49.6180 C.3     1  ASP1        0.0687
     68 CG         24.6190   12.7710   50.2650 C.2     1  ASP1        0.0522
     69 OD1        23.9680   13.7780   49.9960 O.co2   1  ASP1       -0.5491
     70 OD2        24.2430   11.8740   51.0650 O.co2   1  ASP1       -0.5491
     71 N          30.6690   13.0980   53.1470 N.3     1  ILE1       -0.1245
     72 CA         30.8320   11.8040   53.7750 C.3     1  ILE1        0.1561
     73 C          32.2780   11.6340   54.2150 C.2     1  ILE1        0.2260
     74 O          33.1850   11.6500   53.3770 O.2     1  ILE1       -0.2867
     75 CB         30.4960   10.6730   52.7610 C.3     1  ILE1        0.0252
     76 CG1        29.0960   10.7950   52.2230 C.3     1  ILE1        0.0019
     77 CG2        30.7460    9.3300   53.3830 C.3     1  ILE1        0.0019
     78 CD1        28.8670    9.9740   50.9620 C.3     1  ILE1        0.0001
     79 N          28.1960   13.6080   56.9910 N.3     1  LYS1       -0.1245
     80 CA         27.6240   12.2740   56.9090 C.3     1  LYS1        0.1561
     81 C          28.6570   11.2470   57.3340 C.2     1  LYS1        0.2260
     82 O          29.8440   11.3550   56.9860 O.2     1  LYS1       -0.2867
     83 CB         27.1380   12.0200   55.4560 C.3     1  LYS1        0.0271
     84 CG         26.6930   10.6140   55.1220 C.3     1  LYS1        0.0035
     85 CD         25.9740   10.5250   53.8030 C.3     1  LYS1        0.0206
     86 CE         25.9210    9.1270   53.2140 C.3     1  LYS1        0.1093
     87 NZ         25.0680    9.1030   51.9960 N.3     1  LYS1       -0.1314
     88 N          29.2740    7.9490   56.6340 N.3     1  SER1       -0.1202
     89 CA         29.7850    6.7770   55.9500 C.3     1  SER1        0.2020
     90 C          29.1670    6.6000   54.5930 C.2     1  SER1        0.2619
     91 O          28.0670    7.0660   54.2940 O.2     1  SER1       -0.2717
     92 CB         29.3930    5.5210   56.7540 C.3     1  SER1        0.2103
     93 OG         29.6950    5.6330   58.1450 O.3     1  SER1       -0.2182
     94 N          29.8560    5.8190   53.7430 N.am    2  THR2       -0.1938
     95 CA         29.3120    5.4490   52.4470 C.3     2  THR2        0.2028
     96 C          28.3640    4.2770   52.4970 C.2     2  THR2        0.2643
     97 O          27.6410    4.0880   51.5230 O.2     2  THR2       -0.2714
     98 CB         30.4460    5.0560   51.4620 C.3     2  THR2        0.1808
     99 OG1        31.2040    3.9940   51.9920 O.3     2  THR2       -0.2208
    100 CG2        31.3800    6.2010   51.1740 C.3     2  THR2        0.0379
    101 N          28.4070    3.4440   53.5520 N.am    3  GLY3       -0.1939
    102 CA         27.7110    2.1970   53.5930 C.3     3  GLY3        0.2014
    103 C          28.3830    1.0820   52.8590 C.2     3  GLY3        0.2639
    104 O          27.9490   -0.0440   52.8000 O.2     3  GLY3       -0.2714
    105 N          29.5180    1.2110   52.3150 N.am    4  LYS4       -0.1963
    106 CA         30.2790    0.4120   51.3740 C.3     4  LYS4        0.1728
    107 C          31.5890   -0.0960   51.9740 C.2     4  LYS4        0.2616
    108 O          32.3280   -0.7890   51.2830 O.2     4  LYS4       -0.2715
    109 CB         30.5570    1.1030   50.0410 C.3     4  LYS4        0.0311
    110 CG         29.3060    1.5970   49.3220 C.3     4  LYS4        0.0038
    111 CD         28.2190    0.5600   49.1840 C.3     4  LYS4        0.0206
    112 CE         27.0480    1.0460   48.3300 C.3     4  LYS4        0.1093
    113 NZ         25.9000    0.0830   48.3830 N.3     4  LYS4       -0.1314
    114 N          31.8650    0.1820   53.2230 N.am    5  VAL5       -0.1963
    115 CA         33.0230   -0.3260   53.9430 C.3     5  VAL5        0.1727
    116 C          32.5270   -1.1410   55.1130 C.2     5  VAL5        0.2616
    117 O          31.3250   -1.2570   55.3540 O.2     5  VAL5       -0.2715
    118 CB         33.9750    0.7760   54.3630 C.3     5  VAL5        0.0290
    119 CG1        34.5810    1.4660   53.1400 C.3     5  VAL5        0.0023
    120 CG2        33.2770    1.7750   55.2960 C.3     5  VAL5        0.0023
    121 N          33.4350   -1.7470   55.8670 N.am    6  ALA6       -0.1977
    122 CA         33.0410   -2.7290   56.8670 C.3     6  ALA6        0.1597
    123 C          32.3090   -2.1050   58.0510 C.2     6  ALA6        0.2287
    124 O          31.3600   -2.7170   58.5940 O.2     6  ALA6       -0.2864
    125 CB         34.2470   -3.5130   57.3460 C.3     6  ALA6        0.0319
    126 N          30.3110    1.3720   59.4570 N.3     1  ASN1       -0.1240
    127 CA         29.6420    2.5850   59.0010 C.3     1  ASN1        0.1653
    128 C          29.1250    3.3240   60.2410 C.2     1  ASN1        0.2266
    129 O          29.9050    3.5260   61.1620 O.2     1  ASN1       -0.2867
    130 CB         28.5830    2.2220   57.9640 C.3     1  ASN1        0.1155
    131 CG         29.2370    1.6070   56.7340 C.2     1  ASN1        0.2627
    132 OD1        29.7780    2.2660   55.8670 O.2     1  ASN1       -0.2716
    133 ND2        29.2070    0.2790   56.6790 N.am    1  ASN1       -0.0877
    134 N          24.0090   13.4570   59.1750 N.3     1  LYS1       -0.1245
    135 CA         23.4190   12.2920   58.5190 C.3     1  LYS1        0.1561
    136 C          24.1620   11.0210   58.9080 C.2     1  LYS1        0.2260
    137 O          25.2390   10.7420   58.3300 O.2     1  LYS1       -0.2867
    138 CB         23.3850   12.5240   57.0120 C.3     1  LYS1        0.0271
    139 CG         22.8390   11.3870   56.2100 C.3     1  LYS1        0.0035
    140 CD         22.6190   11.7200   54.7400 C.3     1  LYS1        0.0206
    141 CE         22.2210   10.4950   53.9380 C.3     1  LYS1        0.1093
    142 NZ         22.0660   10.7580   52.4870 N.3     1  LYS1       -0.1314
    143 N          24.6250    7.1280   58.3260 N.3     1  ALA1       -0.1231
    144 CA         24.4000    6.3240   57.1650 C.3     1  ALA1        0.1694
    145 C          25.1990    5.0450   57.2600 C.2     1  ALA1        0.2593
    146 O          26.3360    5.0180   57.7630 O.2     1  ALA1       -0.2718
    147 CB         24.7930    7.0840   55.9160 C.3     1  ALA1        0.0304
    148 N          24.6130    3.9800   56.7260 N.am    2  GLY2       -0.1942
    149 CA         25.2300    2.7090   56.6330 C.3     2  GLY2        0.2014
    150 C          24.9530    1.8460   57.8290 C.2     2  GLY2        0.2639
    151 O          25.3250    2.2030   58.9290 O.2     2  GLY2       -0.2714
    152 N          24.2480    0.7530   57.6200 N.am    3  GLY3       -0.1939
    153 CA         23.9270   -0.1570   58.6590 C.3     3  GLY3        0.2014
    154 C          22.8000    0.2610   59.5940 C.2     3  GLY3        0.2639
    155 O          22.5840   -0.4740   60.5870 O.2     3  GLY3       -0.2714
    156 N          22.0830    1.3520   59.3600 N.am    4  VAL4       -0.1963
    157 CA         20.9670    1.7700   60.2170 C.3     4  VAL4        0.1727
    158 C          19.7490    0.9920   59.7080 C.2     4  VAL4        0.2616
    159 O          19.2240    1.2970   58.6430 O.2     4  VAL4       -0.2715
    160 CB         20.7930    3.3030   60.1800 C.3     4  VAL4        0.0290
    161 CG2        19.7320    3.6930   61.2000 C.3     4  VAL4        0.0023
    162 CG1        22.0860    4.0710   60.3930 C.3     4  VAL4        0.0023
    163 N          19.3240   -0.0330   60.4680 N.am    5  ARG5       -0.1977
    164 CA         18.3850   -0.9880   59.9360 C.3     5  ARG5        0.1597
    165 C          17.1190   -1.1120   60.7490 C.2     5  ARG5        0.2287
    166 O          16.1000   -1.5330   60.1230 O.2     5  ARG5       -0.2864
    167 CB         19.0540   -2.3830   59.8660 C.3     5  ARG5        0.0334
    168 CG         20.1950   -2.4010   58.8290 C.3     5  ARG5        0.0492
    169 CD         20.9260   -3.6830   58.7360 C.3     5  ARG5        0.2205
    170 NE         21.8390   -3.5910   57.5930 N.pl3   5  ARG5       -0.0865
    171 CZ         22.8900   -4.3730   57.4090 C.cat   5  ARG5        0.5346
    172 NH2        23.2560   -5.3520   58.2240 N.pl3   5  ARG5        0.1354
    173 NH1        23.6090   -4.1460   56.3240 N.pl3   5  ARG5        0.1354
    174 N          20.5970    8.1170   56.1770 N.3     1  GLY1       -0.1210
    175 CA         20.9590    7.4180   54.9330 C.3     1  GLY1        0.1956
    176 C          20.7040    5.9420   55.0950 C.2     1  GLY1        0.2612
    177 O          21.3670    5.3120   55.9050 O.2     1  GLY1       -0.2717
    178 N          19.7000    5.4280   54.4110 N.am    2  ALA2       -0.1965
    179 CA         19.3040    4.0380   54.6450 C.3     2  ALA2        0.1728
    180 C          18.6160    3.4400   53.4150 C.2     2  ALA2        0.2617
    181 O          17.7960    4.0520   52.7740 O.2     2  ALA2       -0.2715
    182 CB         18.4490    3.9400   55.9010 C.3     2  ALA2        0.0334
    183 N          19.1370    2.2550   53.0350 N.am    3  SER3       -0.1936
    184 CA         18.5370    1.4240   52.0010 C.3     3  SER3        0.2055
    185 C          17.5590    0.4170   52.5660 C.2     3  SER3        0.2644
    186 O          16.7150   -0.1330   51.8460 O.2     3  SER3       -0.2714
    187 CB         19.5740    0.6840   51.2080 C.3     3  SER3        0.2130
    188 OG         20.1780   -0.2870   52.0350 O.3     3  SER3       -0.2179
    189 N          17.6850    0.0730   53.8620 N.am    4  SER4       -0.1935
    190 CA         16.9620   -0.9840   54.4480 C.3     4  SER4        0.2055
    191 C          16.4740   -0.7580   55.8770 C.2     4  SER4        0.2642
    192 O          16.5120   -1.6430   56.7650 O.2     4  SER4       -0.2714
    193 CB         17.9740   -2.2190   54.4810 C.3     4  SER4        0.2130
    194 OG         18.6740   -2.3440   53.2810 O.3     4  SER4       -0.2179
    195 N          15.9260    0.3770   56.2290 N.am    5  LEU5       -0.1977
    196 CA         15.3360    0.8570   57.4710 C.3     5  LEU5        0.1596
    197 C          13.8340    1.1200   57.3910 C.2     5  LEU5        0.2287
    198 O          13.1130    1.0350   58.3820 O.2     5  LEU5       -0.2864
    199 CB         16.0250    2.1840   57.8370 C.3     5  LEU5        0.0297
    200 CG         15.5470    3.0010   59.0440 C.3     5  LEU5        0.0022
    201 CD2        15.6550    2.1690   60.3250 C.3     5  LEU5        0.0001
    202 CD1        16.3450    4.2880   59.1590 C.3     5  LEU5        0.0001
@<TRIPOS>UNITY_ATOM_ATTR
7 1
charge -1
69 1
charge -1
@<TRIPOS>BOND
     1     1     2    1
     2     2     3    1
     3     2     5    1
     4     3     4    2
     5     5     6    1
     6     6     8   ar
     7     6     7   ar
     8     9    10    1
     9    10    11    1
    10    10    13    1
    11    11    16   am
    12    11    12    2
    13    13    15    1
    14    13    14    1
    15    16    17    1
    16    17    20    1
    17    17    18    1
    18    18    19    2
    19    18    23   am
    20    20    22    1
    21    20    21    1
    22    23    24    1
    23    24    25    1
    24    24    27    1
    25    25    31   am
    26    25    26    2
    27    27    28    1
    28    28    30    1
    29    28    29    1
    30    31    32    1
    31    32    33    1
    32    32    35    1
    33    33    34    2
    34    35    36    1
    35    36    38   am
    36    36    37    2
    37    39    40    1
    38    40    41    1
    39    40    43    1
    40    41    42    2
    41    43    44    1
    42    45    46    1
    43    46    47    1
    44    46    49    1
    45    47    48    2
    46    49    51    1
    47    49    50    1
    48    52    53    1
    49    53    54    1
    50    53    56    1
    51    54    55    2
    52    56    57    1
    53    57    59   ar
    54    57    58   ar
    55    58    60   ar
    56    59    61   ar
    57    60    62   ar
    58    61    62   ar
    59    63    64    1
    60    64    65    1
    61    64    67    1
    62    65    66    2
    63    67    68    1
    64    68    69   ar
    65    68    70   ar
    66    71    72    1
    67    72    75    1
    68    72    73    1
    69    73    74    2
    70    75    76    1
    71    75    77    1
    72    76    78    1
    73    79    80    1
    74    80    83    1
    75    80    81    1
    76    81    82    2
    77    83    84    1
    78    84    85    1
    79    85    86    1
    80    86    87    1
    81    88    89    1
    82    89    90    1
    83    89    92    1
    84    90    94   am
    85    90    91    2
    86    92    93    1
    87    94    95    1
    88    95    98    1
    89    95    96    1
    90    96    97    2
    91    96   101   am
    92    98   100    1
    93    98    99    1
    94   101   102    1
    95   102   103    1
    96   103   105   am
    97   103   104    2
    98   105   106    1
    99   106   109    1
   100   106   107    1
   101   107   108    2
   102   107   114   am
   103   109   110    1
   104   110   111    1
   105   111   112    1
   106   112   113    1
   107   114   115    1
   108   115   118    1
   109   115   116    1
   110   116   117    2
   111   116   121   am
   112   118   119    1
   113   118   120    1
   114   121   122    1
   115   122   125    1
   116   122   123    1
   117   123   124    2
   118   126   127    1
   119   127   130    1
   120   127   128    1
   121   128   129    2
   122   130   131    1
   123   131   132    2
   124   131   133   am
   125   134   135    1
   126   135   138    1
   127   135   136    1
   128   136   137    2
   129   138   139    1
   130   139   140    1
   131   140   141    1
   132   141   142    1
   133   143   144    1
   134   144   147    1
   135   144   145    1
   136   145   148   am
   137   145   146    2
   138   148   149    1
   139   149   150    1
   140   150   152   am
   141   150   151    2
   142   152   153    1
   143   153   154    1
   144   154   156   am
   145   154   155    2
   146   156   157    1
   147   157   158    1
   148   157   160    1
   149   158   159    2
   150   158   163   am
   151   160   162    1
   152   160   161    1
   153   163   164    1
   154   164   167    1
   155   164   165    1
   156   165   166    2
   157   167   168    1
   158   168   169    1
   159   169   170    1
   160   170   171    2
   161   171   173    1
   162   171   172    1
   163   174   175    1
   164   175   176    1
   165   176   178   am
   166   176   177    2
   167   178   179    1
   168   179   180    1
   169   179   182    1
   170   180   181    2
   171   180   183   am
   172   183   184    1
   173   184   187    1
   174   184   185    1
   175   185   186    2
   176   185   189   am
   177   187   188    1
   178   189   190    1
   179   190   193    1
   180   190   191    1
   181   191   195   am
   182   191   192    2
   183   193   194    1
   184   195   196    1
   185   196   197    1
   186   196   199    1
   187   197   198    2
   188   199   200    1
   189   200   202    1
   190   200   201    1
