@<TRIPOS>MOLECULE
./2nty/protein.pdb
 145 140 0 0 0
SMALL
GASTEIGER

@<TRIPOS>ATOM
      1 N          58.9730   64.0150  -24.6620 N.3     1  ALA1       -0.1231
      2 CA         59.1040   65.0380  -25.6920 C.3     1  ALA1        0.1694
      3 C          58.1240   64.9910  -26.8490 C.2     1  ALA1        0.2592
      4 O          58.1250   65.9140  -27.6900 O.2     1  ALA1       -0.2718
      5 CB         60.4910   65.0920  -26.2100 C.3     1  ALA1        0.0304
      6 N          57.3020   63.9480  -26.9040 N.am    2  VAL2       -0.1966
      7 CA         56.3680   63.7660  -28.0080 C.3     2  VAL2        0.1727
      8 C          55.1530   64.6750  -27.8590 C.2     2  VAL2        0.2617
      9 O          54.4020   64.8860  -28.8110 O.2     2  VAL2       -0.2715
     10 CB         55.8940   62.3040  -28.1120 C.3     2  VAL2        0.0290
     11 CG1        57.0760   61.3540  -27.9910 C.3     2  VAL2        0.0023
     12 CG2        54.8520   62.0080  -27.0440 C.3     2  VAL2        0.0023
     13 N          54.9650   65.2100  -26.6570 N.am    3  GLY3       -0.1940
     14 CA         54.1040   66.3610  -26.4610 C.3     3  GLY3        0.2014
     15 C          52.7080   65.9730  -26.0150 C.2     3  GLY3        0.2638
     16 O          51.7150   66.4590  -26.5570 O.2     3  GLY3       -0.2714
     17 N          52.2400   65.3290  -25.1140 N.am    4  LYS4       -0.1977
     18 CA         50.9580   64.8430  -24.6160 C.3     4  LYS4        0.1596
     19 C          50.3980   65.7660  -23.5390 C.2     4  LYS4        0.2287
     20 O          49.1870   65.9620  -23.4450 O.2     4  LYS4       -0.2864
     21 CB         51.1000   63.4210  -24.0690 C.3     4  LYS4        0.0298
     22 CG         52.1530   62.5850  -24.7790 C.3     4  LYS4        0.0038
     23 CD         52.6060   61.4190  -23.9160 C.3     4  LYS4        0.0206
     24 CE         53.2770   61.9030  -22.6410 C.3     4  LYS4        0.1093
     25 NZ         54.6910   61.4450  -22.5490 N.3     4  LYS4       -0.1314
     26 N          51.0300   68.5400  -23.5160 N.3     1  CYS1       -0.1221
     27 CA         50.4260   69.6180  -24.2770 C.3     1  CYS1        0.1808
     28 C          49.1190   69.2980  -24.9610 C.2     1  CYS1        0.2601
     29 O          48.1910   70.0820  -24.9500 O.2     1  CYS1       -0.2717
     30 CB         51.3810   70.0740  -25.3470 C.3     1  CYS1        0.0970
     31 SG         52.6860   70.9990  -24.5840 S.3     1  CYS1       -0.0800
     32 N          49.0710   68.1690  -25.6380 N.am    2  MET2       -0.1979
     33 CA         47.8220   67.7680  -26.1840 C.3     2  MET2        0.1605
     34 C          46.7520   67.7920  -25.0500 C.2     2  MET2        0.2287
     35 O          45.6990   68.4370  -25.2230 O.2     2  MET2       -0.2864
     36 CB         47.9690   66.4250  -26.8370 C.3     2  MET2        0.0413
     37 CG         46.6900   65.7180  -27.0230 C.3     2  MET2        0.0598
     38 SD         47.2100   64.3780  -28.0740 S.3     2  MET2       -0.1393
     39 CE         47.9810   63.2930  -26.8390 C.3     2  MET2        0.0692
     40 N          48.4300   76.9710  -24.7200 N.3     1  PHE1       -0.1228
     41 CA         49.6650   76.3590  -25.1770 C.3     1  PHE1        0.1721
     42 C          50.8690   77.1560  -24.7230 C.2     1  PHE1        0.2437
     43 O          50.9830   78.3310  -25.0300 O.2     1  PHE1       -0.2733
     44 CB         49.6760   76.2650  -26.6970 C.3     1  PHE1        0.0547
     45 CG         50.9010   75.6090  -27.2510 C.ar    1  PHE1       -0.0202
     46 CD1        51.9420   76.3590  -27.7320 C.ar    1  PHE1       -0.0042
     47 CD2        51.0060   74.2410  -27.2850 C.ar    1  PHE1       -0.0042
     48 CE1        53.0580   75.7550  -28.2370 C.ar    1  PHE1       -0.0003
     49 CE2        52.1180   73.6440  -27.7820 C.ar    1  PHE1       -0.0003
     50 CZ         53.1430   74.4000  -28.2620 C.ar    1  PHE1       -0.0000
     51 N          51.7740   76.5090  -24.0040 N.am    2  PRO2       -0.2729
     52 CA         52.5620   77.1810  -22.9790 C.3     2  PRO2        0.1401
     53 C          53.7610   77.9330  -23.5300 C.2     2  PRO2        0.2269
     54 O          53.6280   78.6770  -24.4950 O.2     2  PRO2       -0.2865
     55 CB         53.0260   76.0230  -22.1160 C.3     2  PRO2        0.0296
     56 CG         51.9000   75.0670  -22.1800 C.3     2  PRO2        0.0237
     57 CD         51.2300   75.2370  -23.5090 C.3     2  PRO2        0.0939
     58 N          55.8580   61.3920  -31.8690 N.3     1  SER1       -0.1217
     59 CA         56.0640   62.7260  -32.5020 C.3     1  SER1        0.1889
     60 CB         56.3070   62.5750  -33.9690 C.2     1  SER1        0.2288
     61 OG         57.1800   61.8030  -34.3700 O.2     1  SER1       -0.2866
     62 C          57.2750   63.4370  -31.8740 C.3     1  SER1        0.2089
     63 O          57.7440   64.5770  -32.5820 O.3     1  SER1       -0.2183
     64 N          57.7730   64.2980  -35.9630 N.3     1  ILE1       -0.1245
     65 CA         59.1070   64.6370  -36.4130 C.3     1  ILE1        0.1561
     66 C          60.2050   63.7860  -35.7830 C.2     1  ILE1        0.2260
     67 O          61.3480   64.2090  -35.7570 O.2     1  ILE1       -0.2867
     68 CB         59.3930   66.1120  -36.2130 C.3     1  ILE1        0.0252
     69 CG1        59.0960   66.5080  -34.7780 C.3     1  ILE1        0.0019
     70 CG2        58.5210   66.9140  -37.1110 C.3     1  ILE1        0.0019
     71 CD1        60.0240   67.5340  -34.2460 C.3     1  ILE1        0.0001
     72 N          49.7280   60.7080  -33.8150 N.3     1  GLY1       -0.1210
     73 CA         50.9750   61.3870  -34.1250 C.3     1  GLY1        0.1956
     74 C          50.8410   62.8520  -33.8070 C.2     1  GLY1        0.2613
     75 O          49.8640   63.4800  -34.1610 O.2     1  GLY1       -0.2717
     76 N          51.8410   63.3990  -33.1310 N.am    2  THR2       -0.1938
     77 CA         51.8010   64.7810  -32.6780 C.3     2  THR2        0.2028
     78 C          52.7200   65.7040  -33.4640 C.2     2  THR2        0.2642
     79 O          53.6040   65.2920  -34.1390 O.2     2  THR2       -0.2714
     80 CB         52.1410   64.8670  -31.2040 C.3     2  THR2        0.1808
     81 OG1        53.4440   64.3380  -31.0090 O.3     2  THR2       -0.2208
     82 CG2        51.1810   64.0520  -30.3800 C.3     2  THR2        0.0379
     83 N          52.4620   66.9870  -33.3400 N.am    3  LYS3       -0.1963
     84 CA         53.2640   68.0470  -33.9160 C.3     3  LYS3        0.1728
     85 C          53.0130   68.1170  -35.4100 C.2     3  LYS3        0.2616
     86 O          53.9020   68.4140  -36.2420 O.2     3  LYS3       -0.2715
     87 CB         54.7040   67.9050  -33.5210 C.3     3  LYS3        0.0311
     88 CG         54.8780   68.0260  -32.0420 C.3     3  LYS3        0.0038
     89 CD         56.3080   67.8150  -31.6900 C.3     3  LYS3        0.0206
     90 CE         56.4890   67.4760  -30.2450 C.3     3  LYS3        0.1093
     91 NZ         57.9220   67.7210  -29.9000 N.3     3  LYS3       -0.1314
     92 N          51.7470   67.8750  -35.7450 N.am    4  LEU4       -0.1963
     93 CA         51.3020   67.9960  -37.1140 C.3     4  LEU4        0.1728
     94 C          51.8940   69.2100  -37.7930 C.2     4  LEU4        0.2616
     95 O          52.1880   69.1560  -38.9530 O.2     4  LEU4       -0.2715
     96 CB         49.7680   67.9810  -37.2340 C.3     4  LEU4        0.0311
     97 CG         49.1750   67.9260  -38.6500 C.3     4  LEU4        0.0022
     98 CD1        49.9830   67.0610  -39.6690 C.3     4  LEU4        0.0001
     99 CD2        47.7950   67.4280  -38.5660 C.3     4  LEU4        0.0001
    100 N          52.1070   70.2820  -37.0730 N.am    5  ASP5       -0.1959
    101 CA         52.3380   71.5310  -37.7260 C.3     5  ASP5        0.1783
    102 C          53.7870   71.6900  -38.1730 C.2     5  ASP5        0.2619
    103 O          54.1300   72.6250  -38.9180 O.2     5  ASP5       -0.2715
    104 CB         51.9640   72.6490  -36.7750 C.3     5  ASP5        0.0728
    105 CG         52.6820   72.5400  -35.4310 C.2     5  ASP5        0.0526
    106 OD2        52.3670   71.5900  -34.6460 O.co2   5  ASP5       -0.5491
    107 OD1        53.5720   73.4140  -35.1890 O.co2   5  ASP5       -0.5491
    108 N          54.6460   70.7720  -37.7360 N.am    6  LEU6       -0.1977
    109 CA         56.0360   70.8470  -38.1140 C.3     6  LEU6        0.1596
    110 C          56.3410   69.9610  -39.2930 C.2     6  LEU6        0.2287
    111 O          57.3650   70.1110  -39.9070 O.2     6  LEU6       -0.2864
    112 CB         56.9020   70.4410  -36.9390 C.3     6  LEU6        0.0297
    113 CG         56.8970   71.3300  -35.6960 C.3     6  LEU6        0.0022
    114 CD2        57.8470   70.7630  -34.6870 C.3     6  LEU6        0.0001
    115 CD1        57.3010   72.7410  -36.0880 C.3     6  LEU6        0.0001
    116 N          47.5830   65.2030  -35.0680 N.3     1  CYS1       -0.1221
    117 CA         47.0710   66.4130  -34.4390 C.3     1  CYS1        0.1808
    118 C          48.2030   67.3120  -34.0020 C.2     1  CYS1        0.2602
    119 O          49.3740   66.9150  -34.0460 O.2     1  CYS1       -0.2717
    120 CB         46.2240   66.0420  -33.2190 C.3     1  CYS1        0.0970
    121 SG         47.2720   65.5450  -31.7740 S.3     1  CYS1       -0.0800
    122 N          47.8490   68.5090  -33.5290 N.am    2  SER2       -0.1938
    123 CA         48.8400   69.4920  -33.1570 C.3     2  SER2        0.2055
    124 C          48.2680   70.3180  -32.0840 C.2     2  SER2        0.2644
    125 O          47.2940   70.9840  -32.3080 O.2     2  SER2       -0.2714
    126 CB         49.0880   70.4430  -34.3140 C.3     2  SER2        0.2130
    127 OG         49.8820   71.5590  -33.8860 O.3     2  SER2       -0.2179
    128 N          48.8950   70.3520  -30.9290 N.am    3  SER3       -0.1935
    129 CA         48.3760   71.1970  -29.9290 C.3     3  SER3        0.2055
    130 C          48.6450   72.6570  -30.2220 C.2     3  SER3        0.2643
    131 O          47.9430   73.4820  -29.6790 O.2     3  SER3       -0.2714
    132 CB         48.8420   70.7690  -28.5460 C.3     3  SER3        0.2130
    133 OG         49.8760   69.7980  -28.6340 O.3     3  SER3       -0.2179
    134 N          49.6070   73.0140  -31.0760 N.am    4  ALA4       -0.1963
    135 CA         49.7860   74.4640  -31.4010 C.3     4  ALA4        0.1728
    136 C          48.6010   74.9960  -32.1500 C.2     4  ALA4        0.2616
    137 O          48.1360   76.0550  -31.8510 O.2     4  ALA4       -0.2715
    138 CB         51.1460   74.8330  -32.1440 C.3     4  ALA4        0.0334
    139 N          48.0900   74.2560  -33.1020 N.am    5  THR5       -0.1951
    140 CA         47.0080   74.7720  -33.9100 C.3     5  THR5        0.1897
    141 C          45.6910   74.2960  -33.3760 C.2     5  THR5        0.2313
    142 O          44.6440   74.8390  -33.7170 O.2     5  THR5       -0.2863
    143 CB         47.1060   74.2900  -35.3330 C.3     5  THR5        0.1794
    144 OG1        47.2300   72.8460  -35.3540 O.3     5  THR5       -0.2208
    145 CG2        48.2940   74.9120  -35.9810 C.3     5  THR5        0.0378
@<TRIPOS>UNITY_ATOM_ATTR
106 1
charge -1
@<TRIPOS>BOND
     1     1     2    1
     2     2     3    1
     3     2     5    1
     4     3     4    2
     5     3     6   am
     6     6     7    1
     7     7    10    1
     8     7     8    1
     9     8     9    2
    10     8    13   am
    11    10    11    1
    12    10    12    1
    13    13    14    1
    14    14    15    1
    15    15    16    2
    16    15    17   am
    17    17    18    1
    18    18    21    1
    19    18    19    1
    20    19    20    2
    21    21    22    1
    22    22    23    1
    23    23    24    1
    24    24    25    1
    25    26    27    1
    26    27    30    1
    27    27    28    1
    28    28    32   am
    29    28    29    2
    30    30    31    1
    31    32    33    1
    32    33    36    1
    33    33    34    1
    34    34    35    2
    35    36    37    1
    36    37    38    1
    37    38    39    1
    38    40    41    1
    39    41    44    1
    40    41    42    1
    41    42    43    2
    42    42    51   am
    43    44    45    1
    44    45    46   ar
    45    45    47   ar
    46    46    48   ar
    47    47    49   ar
    48    48    50   ar
    49    49    50   ar
    50    51    57    1
    51    51    52    1
    52    52    53    1
    53    52    55    1
    54    53    54    2
    55    55    56    1
    56    56    57    1
    57    58    59    1
    58    59    60    1
    59    59    62    1
    60    60    61    2
    61    62    63    1
    62    64    65    1
    63    65    68    1
    64    65    66    1
    65    66    67    2
    66    68    70    1
    67    68    69    1
    68    69    71    1
    69    72    73    1
    70    73    74    1
    71    74    75    2
    72    74    76   am
    73    76    77    1
    74    77    78    1
    75    77    80    1
    76    78    79    2
    77    78    83   am
    78    80    81    1
    79    80    82    1
    80    83    84    1
    81    84    85    1
    82    84    87    1
    83    85    86    2
    84    85    92   am
    85    87    88    1
    86    88    89    1
    87    89    90    1
    88    90    91    1
    89    92    93    1
    90    93    94    1
    91    93    96    1
    92    94    95    2
    93    94   100   am
    94    96    97    1
    95    97    98    1
    96    97    99    1
    97   100   101    1
    98   101   102    1
    99   101   104    1
   100   102   103    2
   101   102   108   am
   102   104   105    1
   103   105   107   ar
   104   105   106   ar
   105   108   109    1
   106   109   110    1
   107   109   112    1
   108   110   111    2
   109   112   113    1
   110   113   115    1
   111   113   114    1
   112   116   117    1
   113   117   118    1
   114   117   120    1
   115   118   119    2
   116   118   122   am
   117   120   121    1
   118   122   123    1
   119   123   126    1
   120   123   124    1
   121   124   125    2
   122   124   128   am
   123   126   127    1
   124   128   129    1
   125   129   130    1
   126   129   132    1
   127   130   134   am
   128   130   131    2
   129   132   133    1
   130   134   135    1
   131   135   136    1
   132   135   138    1
   133   136   139   am
   134   136   137    2
   135   139   140    1
   136   140   143    1
   137   140   141    1
   138   141   142    2
   139   143   145    1
   140   143   144    1
