@<TRIPOS>MOLECULE
./1tjw/protein.pdb
 210 211 0 0 0
SMALL
GASTEIGER

@<TRIPOS>ATOM
      1 N          55.0370   -7.7300   30.8570 N.3     1  LEU1       -0.1231
      2 CA         54.3640   -7.7660   29.5630 C.3     1  LEU1        0.1678
      3 C          54.3400   -6.3530   28.9740 C.2     1  LEU1        0.2434
      4 O          54.7910   -5.3910   29.6020 O.2     1  LEU1       -0.2733
      5 CB         52.9310   -8.3130   29.7140 C.3     1  LEU1        0.0284
      6 CG         51.7730   -7.3240   29.9190 C.3     1  LEU1        0.0019
      7 CD1        50.4420   -8.0720   29.8660 C.3     1  LEU1        0.0001
      8 CD2        51.9270   -6.5900   31.2380 C.3     1  LEU1        0.0001
      9 N          53.8190   -6.2080   27.7510 N.am    2  PRO2       -0.2718
     10 CA         53.7740   -4.8750   27.1490 C.3     2  PRO2        0.1535
     11 C          52.7960   -3.8980   27.8120 C.2     2  PRO2        0.2599
     12 O          51.7140   -4.2760   28.2610 O.2     2  PRO2       -0.2715
     13 CB         53.3550   -5.1500   25.7010 C.3     2  PRO2        0.0310
     14 CG         53.7120   -6.5900   25.4730 C.3     2  PRO2        0.0237
     15 CD         53.3960   -7.2430   26.7920 C.3     2  PRO2        0.0939
     16 N          53.2020   -2.6380   27.8620 N.am    3  GLY3       -0.1941
     17 CA         52.3450   -1.5790   28.3600 C.3     3  GLY3        0.2014
     18 C          51.8080   -1.0020   27.0520 C.2     3  GLY3        0.2639
     19 O          52.5380   -0.9500   26.0490 O.2     3  GLY3       -0.2714
     20 N          50.5490   -0.5870   27.0300 N.am    4  TYR4       -0.1959
     21 CA         49.9690   -0.0600   25.7940 C.3     4  TYR4        0.1771
     22 C          49.4340    1.3620   25.8400 C.2     4  TYR4        0.2620
     23 O          48.9020    1.8130   26.8530 O.2     4  TYR4       -0.2715
     24 CB         48.8060   -0.9460   25.3190 C.3     4  TYR4        0.0574
     25 CG         49.1830   -2.3520   24.9250 C.ar    4  TYR4       -0.0198
     26 CD2        49.3780   -3.3350   25.8900 C.ar    4  TYR4       -0.0009
     27 CD1        49.3660   -2.6900   23.5830 C.ar    4  TYR4       -0.0009
     28 CE2        49.7540   -4.6300   25.5300 C.ar    4  TYR4        0.0417
     29 CE1        49.7420   -3.9850   23.2030 C.ar    4  TYR4        0.0417
     30 CZ         49.9390   -4.9480   24.1880 C.ar    4  TYR4        0.1957
     31 OH         50.3770   -6.2030   23.8430 O.3     4  TYR4       -0.2866
     32 N          49.5630    2.0420   24.7050 N.am    5  ASP5       -0.1959
     33 CA         49.0370    3.3860   24.5120 C.3     5  ASP5        0.1783
     34 C          48.6010    3.3930   23.0380 C.2     5  ASP5        0.2620
     35 O          49.3470    2.9660   22.1440 O.2     5  ASP5       -0.2715
     36 CB         50.0970    4.4510   24.8330 C.3     5  ASP5        0.0728
     37 CG         51.2910    4.4060   23.9030 C.2     5  ASP5        0.0526
     38 OD1        51.6520    3.3110   23.4290 O.co2   5  ASP5       -0.5491
     39 OD2        51.8810    5.4840   23.6670 O.co2   5  ASP5       -0.5491
     40 N          47.3730    3.8340   22.7890 N.am    6  HIS6       -0.1959
     41 CA         46.8250    3.8190   21.4340 C.3     6  HIS6        0.1784
     42 C          46.7460    2.3430   21.0030 C.2     6  HIS6        0.2620
     43 O          46.7380    2.0150   19.8130 O.2     6  HIS6       -0.2715
     44 CB         47.7290    4.5870   20.4720 C.3     6  HIS6        0.0745
     45 CG         48.0430    5.9780   20.9140 C.2     6  HIS6        0.0653
     46 ND1        47.1060    6.9910   20.9110 N.2     6  HIS6       -0.2310
     47 CD2        49.2040    6.5370   21.3300 C.3     6  HIS6        0.1683
     48 CE1        47.6790    8.1160   21.3030 C.2     6  HIS6        0.1939
     49 NE2        48.9520    7.8690   21.5640 N.2     6  HIS6       -0.2440
     50 N          46.6800    1.4710   22.0060 N.am    7  LEU7       -0.1977
     51 CA         46.6120    0.0250   21.8320 C.3     7  LEU7        0.1596
     52 C          47.8020   -0.5120   21.0580 C.2     7  LEU7        0.2287
     53 O          47.7170   -1.5660   20.4250 O.2     7  LEU7       -0.2864
     54 CB         45.3110   -0.3900   21.1380 C.3     7  LEU7        0.0297
     55 CG         44.8530   -1.8150   21.4490 C.3     7  LEU7        0.0022
     56 CD2        44.7240   -2.0030   22.9510 C.3     7  LEU7        0.0001
     57 CD1        43.5050   -2.0770   20.7900 C.3     7  LEU7        0.0001
     58 N          56.1560   -3.3690   31.1970 N.3     1  ILE1       -0.1231
     59 CA         55.6040   -2.9930   32.4970 C.3     1  ILE1        0.1692
     60 C          55.2860   -4.2970   33.2100 C.2     1  ILE1        0.2592
     61 O          55.2100   -5.3570   32.5760 O.2     1  ILE1       -0.2718
     62 CB         54.2630   -2.1730   32.4300 C.3     1  ILE1        0.0266
     63 CG1        53.1780   -2.9890   31.7260 C.3     1  ILE1        0.0019
     64 CG2        54.4930   -0.8280   31.7530 C.3     1  ILE1        0.0020
     65 CD1        51.7360   -2.4650   31.9680 C.3     1  ILE1        0.0001
     66 N          55.0960   -4.2280   34.5220 N.am    2  ARG2       -0.1966
     67 CA         54.7470   -5.4170   35.2770 C.3     2  ARG2        0.1729
     68 C          53.2430   -5.6480   35.1640 C.2     2  ARG2        0.2616
     69 O          52.4550   -4.7030   35.2420 O.2     2  ARG2       -0.2715
     70 CB         55.1320   -5.2580   36.7620 C.3     2  ARG2        0.0348
     71 CG         56.6400   -5.3790   37.0240 C.3     2  ARG2        0.0492
     72 CD         57.0360   -5.2370   38.4940 C.3     2  ARG2        0.2205
     73 NE         58.4960   -5.2430   38.6140 N.pl3   2  ARG2       -0.0865
     74 CZ         59.2440   -6.3430   38.5570 C.cat   2  ARG2        0.5346
     75 NH1        58.6770   -7.5350   38.4080 N.pl3   2  ARG2        0.1354
     76 NH2        60.5650   -6.2480   38.5970 N.pl3   2  ARG2        0.1354
     77 N          52.8590   -6.9060   34.9650 N.am    3  TRP3       -0.1974
     78 CA         51.4610   -7.3110   34.8790 C.3     3  TRP3        0.1637
     79 C          50.7510   -6.8090   36.1390 C.2     3  TRP3        0.2290
     80 O          49.5830   -6.4040   36.1040 O.2     3  TRP3       -0.2864
     81 CB         51.4140   -8.8350   34.7970 C.3     3  TRP3        0.0537
     82 CG         50.1180   -9.4840   35.1340 C.2     3  TRP3       -0.0165
     83 CD1        49.8920  -10.3660   36.1540 C.3     3  TRP3        0.1477
     84 CD2        48.8960   -9.4020   34.3950 C.ar    3  TRP3        0.0113
     85 NE1        48.6140  -10.8440   36.0890 N.2     3  TRP3       -0.2659
     86 CE2        47.9770  -10.2700   35.0180 C.ar    3  TRP3        0.0758
     87 CE3        48.4880   -8.6820   33.2640 C.ar    3  TRP3        0.0009
     88 CZ2        46.6710  -10.4440   34.5450 C.ar    3  TRP3        0.0187
     89 CZ3        47.1830   -8.8560   32.7940 C.ar    3  TRP3        0.0001
     90 CH2        46.2980   -9.7280   33.4340 C.ar    3  TRP3        0.0015
     91 N          51.4100   -4.0800   37.8000 N.3     1  GLN1       -0.1231
     92 CA         51.1860   -2.6330   37.6980 C.3     1  GLN1        0.1698
     93 C          49.8490   -2.4170   36.9630 C.2     1  GLN1        0.2592
     94 O          49.0760   -1.5170   37.3020 O.2     1  GLN1       -0.2718
     95 CB         52.3440   -1.9790   36.9350 C.3     1  GLN1        0.0381
     96 CG         52.2130   -0.4790   36.7020 C.3     1  GLN1        0.0905
     97 CD         52.4880    0.3360   37.9580 C.2     1  GLN1        0.2608
     98 OE1        52.6500    1.5540   37.9010 O.2     1  GLN1       -0.2717
     99 NE2        52.5470   -0.3350   39.0900 N.am    1  GLN1       -0.0878
    100 N          49.5760   -3.2610   35.9690 N.am    2  PHE2       -0.1962
    101 CA         48.3170   -3.1910   35.2220 C.3     2  PHE2        0.1771
    102 C          47.1480   -3.5350   36.1600 C.2     2  PHE2        0.2619
    103 O          46.1360   -2.8180   36.2010 O.2     2  PHE2       -0.2715
    104 CB         48.3590   -4.1760   34.0430 C.3     2  PHE2        0.0574
    105 CG         47.0000   -4.5150   33.4680 C.ar    2  PHE2       -0.0200
    106 CD1        46.3910   -3.6890   32.5290 C.ar    2  PHE2       -0.0042
    107 CD2        46.3350   -5.6730   33.8770 C.ar    2  PHE2       -0.0042
    108 CE1        45.1250   -4.0160   31.9950 C.ar    2  PHE2       -0.0003
    109 CE2        45.0850   -6.0050   33.3590 C.ar    2  PHE2       -0.0003
    110 CZ         44.4790   -5.1660   32.4080 C.ar    2  PHE2       -0.0000
    111 N          47.2950   -4.6180   36.9240 N.am    3  LEU3       -0.1977
    112 CA         46.2520   -5.0490   37.8490 C.3     3  LEU3        0.1596
    113 C          46.0200   -4.0010   38.9320 C.2     3  LEU3        0.2287
    114 O          44.8800   -3.7450   39.3260 O.2     3  LEU3       -0.2864
    115 CB         46.6090   -6.3980   38.5140 C.3     3  LEU3        0.0297
    116 CG         46.6610   -7.6800   37.6640 C.3     3  LEU3        0.0022
    117 CD2        47.1160   -8.8450   38.5300 C.3     3  LEU3        0.0001
    118 CD1        45.2970   -7.9820   37.0580 C.3     3  LEU3        0.0001
    119 N          46.4830   -0.8210   38.6200 N.3     1  SER1       -0.1202
    120 CA         45.8980    0.3970   38.0670 C.3     1  SER1        0.2020
    121 C          44.3770    0.3180   38.1980 C.2     1  SER1        0.2618
    122 O          43.7260    1.3190   38.4700 O.2     1  SER1       -0.2717
    123 CB         46.3100    0.6040   36.6090 C.3     1  SER1        0.2103
    124 OG         45.6530   -0.3010   35.7280 O.3     1  SER1       -0.2182
    125 N          43.8160   -0.8770   38.0240 N.am    2  HIS2       -0.1975
    126 CA         42.3790   -1.0440   38.1500 C.3     2  HIS2        0.1656
    127 C          41.9470   -1.0000   39.6130 C.2     2  HIS2        0.2291
    128 O          40.9170   -0.4030   39.9410 O.2     2  HIS2       -0.2864
    129 CB         41.9280   -2.3480   37.4740 C.3     2  HIS2        0.0771
    130 CG         42.0000   -2.2950   35.9750 C.ar    2  HIS2        0.0820
    131 ND1        41.2380   -1.4200   35.2250 N.ar    2  HIS2       -0.2267
    132 CD2        42.8190   -2.9230   35.0990 C.ar    2  HIS2        0.1154
    133 CE1        41.5930   -1.5060   33.9550 C.ar    2  HIS2        0.1986
    134 NE2        42.5520   -2.4120   33.8530 N.ar    2  HIS2       -0.2212
    135 N          36.2650   -0.6350   31.3120 N.3     1  LYS1       -0.1245
    136 CA         37.6230   -0.4600   30.8320 C.3     1  LYS1        0.1561
    137 C          38.4300   -1.7250   31.1020 C.2     1  LYS1        0.2260
    138 O          39.2150   -2.1670   30.2520 O.2     1  LYS1       -0.2867
    139 CB         38.2590    0.7440   31.5270 C.3     1  LYS1        0.0271
    140 CG         39.7690    0.8520   31.3580 C.3     1  LYS1        0.0035
    141 CD         40.2780    2.0850   32.0900 C.3     1  LYS1        0.0206
    142 CE         41.7860    2.1290   32.1350 C.3     1  LYS1        0.1093
    143 NZ         42.2460    3.3450   32.8520 N.3     1  LYS1       -0.1314
    144 N          37.2520   -4.3700   28.6890 N.3     1  GLU1       -0.1231
    145 CA         37.8380   -4.1350   27.3640 C.3     1  GLU1        0.1697
    146 C          39.2790   -4.6850   27.3290 C.2     1  GLU1        0.2592
    147 O          39.6690   -5.3430   26.3630 O.2     1  GLU1       -0.2718
    148 CB         37.8670   -2.6360   27.0610 C.3     1  GLU1        0.0343
    149 CG         38.5270   -2.2700   25.7330 C.3     1  GLU1        0.0437
    150 CD         37.6060   -2.4370   24.5200 C.2     1  GLU1        0.0504
    151 OE1        38.0050   -1.9460   23.4440 O.co2   1  GLU1       -0.5492
    152 OE2        36.5020   -3.0360   24.6260 O.co2   1  GLU1       -0.5492
    153 N          40.0580   -4.4000   28.3760 N.am    2  ASP2       -0.1962
    154 CA         41.4490   -4.8720   28.4770 C.3     2  ASP2        0.1783
    155 C          41.5590   -6.3990   28.4180 C.2     2  ASP2        0.2619
    156 O          42.3200   -6.9530   27.6190 O.2     2  ASP2       -0.2715
    157 CB         42.0950   -4.4250   29.7940 C.3     2  ASP2        0.0728
    158 CG         42.4740   -2.9510   29.8090 C.2     2  ASP2        0.0526
    159 OD1        42.7260   -2.3690   28.7210 O.co2   2  ASP2       -0.5491
    160 OD2        42.5570   -2.3860   30.9240 O.co2   2  ASP2       -0.5491
    161 N          40.8120   -7.0700   29.2880 N.am    3  LEU3       -0.1977
    162 CA         40.8360   -8.5270   29.3670 C.3     3  LEU3        0.1596
    163 C          40.2870   -9.1940   28.1130 C.2     3  LEU3        0.2287
    164 O          40.8020  -10.2190   27.6640 O.2     3  LEU3       -0.2864
    165 CB         40.0510   -8.9870   30.5920 C.3     3  LEU3        0.0297
    166 CG         40.7670   -9.1140   31.9410 C.3     3  LEU3        0.0022
    167 CD1        42.1510   -8.5030   31.9150 C.3     3  LEU3        0.0001
    168 CD2        39.8820   -8.5020   33.0140 C.3     3  LEU3        0.0001
    169 N          40.4670   -8.0810   25.0780 N.3     1  ILE1       -0.1231
    170 CA         41.5200   -7.9910   24.0720 C.3     1  ILE1        0.1692
    171 C          42.6930   -8.9320   24.4010 C.2     1  ILE1        0.2592
    172 O          43.2170   -9.6320   23.5260 O.2     1  ILE1       -0.2718
    173 CB         42.0020   -6.5150   23.9370 C.3     1  ILE1        0.0266
    174 CG1        40.8890   -5.6790   23.2910 C.3     1  ILE1        0.0019
    175 CG2        43.2810   -6.4140   23.0990 C.3     1  ILE1        0.0020
    176 CD1        41.2210   -4.2220   23.1820 C.3     1  ILE1        0.0001
    177 N          43.0950   -8.9530   25.6660 N.am    2  TYR2       -0.1976
    178 CA         44.1960   -9.8080   26.1090 C.3     2  TYR2        0.1639
    179 C          43.8730  -11.2830   25.9730 C.2     2  TYR2        0.2290
    180 O          44.7840  -12.1100   25.8900 O.2     2  TYR2       -0.2864
    181 CB         44.5370   -9.5290   27.5760 C.3     2  TYR2        0.0560
    182 CG         45.1970   -8.1950   27.8240 C.ar    2  TYR2       -0.0198
    183 CD1        45.4880   -7.3290   26.7740 C.ar    2  TYR2       -0.0009
    184 CD2        45.5020   -7.7850   29.1230 C.ar    2  TYR2       -0.0009
    185 CE1        46.0650   -6.0780   27.0050 C.ar    2  TYR2        0.0417
    186 CE2        46.0780   -6.5330   29.3670 C.ar    2  TYR2        0.0417
    187 CZ         46.3520   -5.6870   28.3090 C.ar    2  TYR2        0.1957
    188 OH         46.8680   -4.4370   28.5550 O.3     2  TYR2       -0.2866
    189 N          46.4570  -11.7570   20.8040 N.3     1  PHE1       -0.1241
    190 CA         47.2700  -11.3050   21.9390 C.3     1  PHE1        0.1605
    191 C          47.7700  -12.5360   22.7150 C.2     1  PHE1        0.2264
    192 O          48.9550  -12.6550   23.0090 O.2     1  PHE1       -0.2867
    193 CB         46.4510  -10.3870   22.8500 C.3     1  PHE1        0.0534
    194 CG         46.4290   -8.9510   22.4010 C.ar    1  PHE1       -0.0203
    195 CD1        45.7650   -8.5780   21.2410 C.ar    1  PHE1       -0.0042
    196 CD2        47.1170   -7.9800   23.1120 C.ar    1  PHE1       -0.0042
    197 CE1        45.7890   -7.2600   20.7910 C.ar    1  PHE1       -0.0003
    198 CE2        47.1520   -6.6490   22.6690 C.ar    1  PHE1       -0.0003
    199 CZ         46.4860   -6.2870   21.5030 C.ar    1  PHE1       -0.0000
    200 N          47.4770  -13.4590   25.8450 N.3     1  PHE1       -0.1241
    201 CA         48.0060  -13.2570   27.1930 C.3     1  PHE1        0.1605
    202 C          47.3130  -14.0120   28.3170 C.2     1  PHE1        0.2264
    203 O          47.9260  -14.2950   29.3510 O.2     1  PHE1       -0.2867
    204 CB         47.9970  -11.7630   27.5540 C.3     1  PHE1        0.0534
    205 CG         48.9050  -10.9160   26.7120 C.ar    1  PHE1       -0.0203
    206 CD1        49.9890  -11.4720   26.0360 C.ar    1  PHE1       -0.0042
    207 CD2        48.7140   -9.5350   26.6480 C.ar    1  PHE1       -0.0042
    208 CE1        50.8680  -10.6690   25.3150 C.ar    1  PHE1       -0.0003
    209 CE2        49.5900   -8.7200   25.9300 C.ar    1  PHE1       -0.0003
    210 CZ         50.6690   -9.2880   25.2640 C.ar    1  PHE1       -0.0000
@<TRIPOS>UNITY_ATOM_ATTR
38 1
charge -1
151 1
charge -1
159 1
charge -1
@<TRIPOS>BOND
     1     1     2    1
     2     2     3    1
     3     2     5    1
     4     3     9   am
     5     3     4    2
     6     5     6    1
     7     6     7    1
     8     6     8    1
     9     9    15    1
    10     9    10    1
    11    10    13    1
    12    10    11    1
    13    11    16   am
    14    11    12    2
    15    13    14    1
    16    14    15    1
    17    16    17    1
    18    17    18    1
    19    18    19    2
    20    18    20   am
    21    20    21    1
    22    21    24    1
    23    21    22    1
    24    22    32   am
    25    22    23    2
    26    24    25    1
    27    25    27   ar
    28    25    26   ar
    29    26    28   ar
    30    27    29   ar
    31    28    30   ar
    32    29    30   ar
    33    30    31    1
    34    32    33    1
    35    33    34    1
    36    33    36    1
    37    34    35    2
    38    34    40   am
    39    36    37    1
    40    37    38   ar
    41    37    39   ar
    42    40    41    1
    43    41    44    1
    44    41    42    1
    45    42    43    2
    46    42    50   am
    47    44    45    1
    48    45    46    2
    49    45    47    1
    50    46    48    1
    51    47    49    1
    52    48    49    2
    53    50    51    1
    54    51    52    1
    55    51    54    1
    56    52    53    2
    57    54    55    1
    58    55    57    1
    59    55    56    1
    60    58    59    1
    61    59    62    1
    62    59    60    1
    63    60    61    2
    64    60    66   am
    65    62    63    1
    66    62    64    1
    67    63    65    1
    68    66    67    1
    69    67    68    1
    70    67    70    1
    71    68    77   am
    72    68    69    2
    73    70    71    1
    74    71    72    1
    75    72    73    1
    76    73    74    2
    77    74    75    1
    78    74    76    1
    79    77    78    1
    80    78    81    1
    81    78    79    1
    82    79    80    2
    83    81    82    1
    84    82    84    2
    85    82    83    1
    86    83    85    1
    87    84    87   ar
    88    84    86   ar
    89    85    86    2
    90    86    88   ar
    91    87    89   ar
    92    88    90   ar
    93    89    90   ar
    94    91    92    1
    95    92    95    1
    96    92    93    1
    97    93   100   am
    98    93    94    2
    99    95    96    1
   100    96    97    1
   101    97    98    2
   102    97    99   am
   103   100   101    1
   104   101   104    1
   105   101   102    1
   106   102   103    2
   107   102   111   am
   108   104   105    1
   109   105   106   ar
   110   105   107   ar
   111   106   108   ar
   112   107   109   ar
   113   108   110   ar
   114   109   110   ar
   115   111   112    1
   116   112   115    1
   117   112   113    1
   118   113   114    2
   119   115   116    1
   120   116   118    1
   121   116   117    1
   122   119   120    1
   123   120   123    1
   124   120   121    1
   125   121   125   am
   126   121   122    2
   127   123   124    1
   128   125   126    1
   129   126   129    1
   130   126   127    1
   131   127   128    2
   132   129   130    1
   133   130   132   ar
   134   130   131   ar
   135   131   133   ar
   136   132   134   ar
   137   133   134   ar
   138   135   136    1
   139   136   137    1
   140   136   139    1
   141   137   138    2
   142   139   140    1
   143   140   141    1
   144   141   142    1
   145   142   143    1
   146   144   145    1
   147   145   148    1
   148   145   146    1
   149   146   147    2
   150   146   153   am
   151   148   149    1
   152   149   150    1
   153   150   151   ar
   154   150   152   ar
   155   153   154    1
   156   154   155    1
   157   154   157    1
   158   155   156    2
   159   155   161   am
   160   157   158    1
   161   158   159   ar
   162   158   160   ar
   163   161   162    1
   164   162   163    1
   165   162   165    1
   166   163   164    2
   167   165   166    1
   168   166   167    1
   169   166   168    1
   170   169   170    1
   171   170   173    1
   172   170   171    1
   173   171   172    2
   174   171   177   am
   175   173   175    1
   176   173   174    1
   177   174   176    1
   178   177   178    1
   179   178   179    1
   180   178   181    1
   181   179   180    2
   182   181   182    1
   183   182   183   ar
   184   182   184   ar
   185   183   185   ar
   186   184   186   ar
   187   185   187   ar
   188   186   187   ar
   189   187   188    1
   190   189   190    1
   191   190   191    1
   192   190   193    1
   193   191   192    2
   194   193   194    1
   195   194   195   ar
   196   194   196   ar
   197   195   197   ar
   198   196   198   ar
   199   197   199   ar
   200   198   199   ar
   201   200   201    1
   202   201   204    1
   203   201   202    1
   204   202   203    2
   205   204   205    1
   206   205   206   ar
   207   205   207   ar
   208   206   208   ar
   209   207   209   ar
   210   208   210   ar
   211   209   210   ar
