@<TRIPOS>MOLECULE
./2qeh/protein.pdb
 285 274 0 0 0
SMALL
GASTEIGER

@<TRIPOS>ATOM
      1 N          18.0610  -17.8880    1.0210 N.3     1  VAL1       -0.1245
      2 CA         17.6550  -17.0760   -0.1260 C.3     1  VAL1        0.1561
      3 C          16.7830  -17.9030   -1.0820 C.2     1  VAL1        0.2260
      4 O          15.8200  -17.3900   -1.6720 O.2     1  VAL1       -0.2867
      5 CB         18.8890  -16.5400   -0.8940 C.3     1  VAL1        0.0252
      6 CG1        18.4680  -15.8480   -2.1770 C.3     1  VAL1        0.0019
      7 CG2        19.7160  -15.5780    0.0080 C.3     1  VAL1        0.0019
      8 N          13.3500  -17.9840    0.1900 N.3     1  CYS1       -0.1221
      9 CA         12.6550  -16.7480   -0.1530 C.3     1  CYS1        0.1808
     10 C          12.1560  -16.6950   -1.6000 C.2     1  CYS1        0.2601
     11 O          11.0370  -16.2580   -1.8600 O.2     1  CYS1       -0.2717
     12 CB         13.5010  -15.5010    0.1640 C.3     1  CYS1        0.0970
     13 SG         14.0990  -15.3630    1.8560 S.3     1  CYS1       -0.0800
     14 N          12.9890  -17.1110   -2.5450 N.am    2  GLU2       -0.1979
     15 CA         12.5800  -17.1280   -3.9450 C.3     2  GLU2        0.1600
     16 C          11.4460  -18.1370   -4.2200 C.2     2  GLU2        0.2287
     17 O          10.5910  -17.9050   -5.0740 O.2     2  GLU2       -0.2864
     18 CB         13.7840  -17.3860   -4.8630 C.3     2  GLU2        0.0356
     19 CG         15.0560  -16.7200   -4.3780 C.3     2  GLU2        0.0439
     20 CD         16.1760  -16.7450   -5.3940 C.2     2  GLU2        0.0504
     21 OE1        16.4380  -17.8170   -5.9930 O.co2   2  GLU2       -0.5492
     22 OE2        16.8130  -15.6840   -5.5760 O.co2   2  GLU2       -0.5492
     23 N           8.1760  -16.4780   -3.6270 N.3     1  LEU1       -0.1245
     24 CA          7.8000  -15.2960   -4.3940 C.3     1  LEU1        0.1561
     25 C           6.4090  -15.4500   -4.9980 C.2     1  LEU1        0.2260
     26 O           5.9860  -16.5560   -5.3350 O.2     1  LEU1       -0.2867
     27 CB          8.8250  -15.0250   -5.4970 C.3     1  LEU1        0.0270
     28 CG         10.0690  -14.2330   -5.0880 C.3     1  LEU1        0.0019
     29 CD1        11.2100  -14.4820   -6.0620 C.3     1  LEU1        0.0001
     30 CD2         9.7530  -12.7480   -4.9940 C.3     1  LEU1        0.0001
     31 N          12.7470  -13.3080  -11.8740 N.3     1  CYS1       -0.1231
     32 CA         13.8040  -13.7360  -10.9650 C.3     1  CYS1        0.1693
     33 C          15.1910  -13.2930  -11.3980 C.2     1  CYS1        0.2592
     34 O          16.0240  -12.9560  -10.5550 O.2     1  CYS1       -0.2718
     35 CB         13.7850  -15.2550  -10.7720 C.3     1  CYS1        0.0284
     36 CG         14.8170  -15.7810   -9.7670 C.3     1  CYS1        0.0019
     37 CD2        14.5050  -15.3170   -8.3650 C.3     1  CYS1        0.0001
     38 CD1        14.9550  -17.2920   -9.8130 C.3     1  CYS1        0.0001
     39 N          15.4510  -13.3040  -12.7020 N.am    2  CYS2       -0.1956
     40 CA         16.7950  -13.0190  -13.2020 C.3     2  CYS2        0.1843
     41 C          17.1660  -11.5440  -13.1010 C.2     2  CYS2        0.2625
     42 O          18.3320  -11.2130  -12.8840 O.2     2  CYS2       -0.2714
     43 CB         16.9950  -13.5290  -14.6360 C.3     2  CYS2        0.0997
     44 SG         16.7180  -15.3250  -14.8930 S.3     2  CYS2       -0.0798
     45 N          16.1830  -10.6590  -13.2880 N.am    3  GLU3       -0.1963
     46 CA         16.3590   -9.2380  -12.9850 C.3     3  GLU3        0.1731
     47 C          16.7190   -9.0520  -11.5170 C.2     3  GLU3        0.2616
     48 O          17.6760   -8.3580  -11.1820 O.2     3  GLU3       -0.2715
     49 CB         15.0640   -8.4500  -13.2470 C.3     3  GLU3        0.0370
     50 CG         14.5380   -8.4960  -14.6600 C.3     3  GLU3        0.0440
     51 CD         13.1410   -7.8840  -14.7460 C.2     3  GLU3        0.0504
     52 OE2        12.9840   -6.7100  -14.3500 O.co2   3  GLU3       -0.5492
     53 OE1        12.2040   -8.5830  -15.1800 O.co2   3  GLU3       -0.5492
     54 N          15.9050   -9.6390  -10.6470 N.am    4  ILE4       -0.1963
     55 CA         16.1620   -9.6340   -9.2140 C.3     4  ILE4        0.1727
     56 C          17.6150  -10.0620   -8.8960 C.2     4  ILE4        0.2616
     57 O          18.3440   -9.3560   -8.2020 O.2     4  ILE4       -0.2715
     58 CB         15.1640  -10.5570   -8.5130 C.3     4  ILE4        0.0290
     59 CG1        13.7310  -10.1150   -8.8200 C.3     4  ILE4        0.0022
     60 CG2        15.4200  -10.6270   -7.0030 C.3     4  ILE4        0.0023
     61 CD1        12.6860  -10.8100   -7.9620 C.3     4  ILE4        0.0001
     62 N          18.0310  -11.2070   -9.4280 N.am    5  ARG5       -0.1963
     63 CA         19.3410  -11.7770   -9.1120 C.3     5  ARG5        0.1729
     64 C          20.4900  -11.0740   -9.8390 C.2     5  ARG5        0.2616
     65 O          21.6600  -11.4030   -9.6240 O.2     5  ARG5       -0.2715
     66 CB         19.3480  -13.2970   -9.3850 C.3     5  ARG5        0.0348
     67 CG         18.4290  -14.1040   -8.4650 C.3     5  ARG5        0.0492
     68 CD         18.5450  -15.6280   -8.6890 C.3     5  ARG5        0.2205
     69 NE         19.9090  -16.0810   -8.4110 N.pl3   5  ARG5       -0.0865
     70 CZ         20.3860  -16.3130   -7.1940 C.cat   5  ARG5        0.5346
     71 NH2        19.6150  -16.1680   -6.1340 N.pl3   5  ARG5        0.1354
     72 NH1        21.6420  -16.6880   -7.0380 N.pl3   5  ARG5        0.1354
     73 N          20.1550  -10.1060  -10.6980 N.am    6  ARG6       -0.1963
     74 CA         21.1460   -9.2060  -11.3060 C.3     6  ARG6        0.1729
     75 C          21.2870   -7.9190  -10.4900 C.2     6  ARG6        0.2616
     76 O          21.9550   -6.9800  -10.9250 O.2     6  ARG6       -0.2715
     77 CB         20.7420   -8.8270  -12.7470 C.3     6  ARG6        0.0348
     78 CG         20.9830   -9.9200  -13.7810 C.3     6  ARG6        0.0492
     79 CD         20.9230   -9.3730  -15.2050 C.3     6  ARG6        0.2205
     80 NE         19.6790   -8.6570  -15.4980 N.pl3   6  ARG6       -0.0865
     81 CZ         18.6130   -9.2030  -16.0870 C.cat   6  ARG6        0.5346
     82 NH1        18.6240  -10.4840  -16.4400 N.pl3   6  ARG6        0.1354
     83 NH2        17.5340   -8.4670  -16.3230 N.pl3   6  ARG6        0.1354
     84 N          20.6720   -7.8980   -9.3100 N.am    7  TYR7       -0.1960
     85 CA         20.6320   -6.7110   -8.4400 C.3     7  TYR7        0.1771
     86 C          19.8610   -5.5630   -9.0820 C.2     7  TYR7        0.2619
     87 O          20.0260   -4.3910   -8.7110 O.2     7  TYR7       -0.2715
     88 CB         22.0330   -6.2480   -8.0490 C.3     7  TYR7        0.0574
     89 CG         22.8070   -7.2620   -7.2330 C.ar    7  TYR7       -0.0198
     90 CD2        22.7050   -7.2880   -5.8450 C.ar    7  TYR7       -0.0009
     91 CD1        23.6400   -8.1890   -7.8510 C.ar    7  TYR7       -0.0009
     92 CE2        23.4090   -8.2140   -5.0910 C.ar    7  TYR7        0.0417
     93 CE1        24.3530   -9.1300   -7.1020 C.ar    7  TYR7        0.0417
     94 CZ         24.2270   -9.1320   -5.7250 C.ar    7  TYR7        0.1957
     95 OH         24.9310  -10.0460   -4.9780 O.3     7  TYR7       -0.2866
     96 N          19.0160   -5.8960  -10.0500 N.am    8  GLU8       -0.1977
     97 CA         18.1490   -4.8850  -10.6310 C.3     8  GLU8        0.1600
     98 C          17.0160   -4.4810   -9.6980 C.2     8  GLU8        0.2287
     99 O          16.4130   -5.3140   -9.0260 O.2     8  GLU8       -0.2864
    100 CB         17.6820   -5.2860  -12.0270 C.3     8  GLU8        0.0356
    101 CG         18.8210   -5.1880  -13.0400 C.3     8  GLU8        0.0439
    102 CD         18.4630   -5.7800  -14.3820 C.2     8  GLU8        0.0504
    103 OE2        17.2810   -6.1320  -14.5650 O.co2   8  GLU8       -0.5492
    104 OE1        19.3590   -5.8800  -15.2500 O.co2   8  GLU8       -0.5492
    105 N           8.3330   -6.6290   -3.4620 N.3     1  MET1       -0.1245
    106 CA          9.7840   -6.6040   -3.4230 C.3     1  MET1        0.1570
    107 C          10.3080   -6.2020   -2.0510 C.2     1  MET1        0.2261
    108 O          11.4090   -6.6060   -1.6620 O.2     1  MET1       -0.2867
    109 CB         10.3200   -5.6690   -4.5090 C.3     1  MET1        0.0387
    110 CG         10.4450   -6.3370   -5.8660 C.3     1  MET1        0.0595
    111 SD         11.5150   -7.8010   -5.7610 S.3     1  MET1       -0.1393
    112 CE         13.1230   -7.0240   -5.8960 C.3     1  MET1        0.0692
    113 N          10.2420   -9.4580    0.0040 N.3     1  HIS1       -0.1226
    114 CA         11.2220  -10.4240   -0.4980 C.3     1  HIS1        0.1752
    115 C          12.6520  -10.0550   -0.1000 C.2     1  HIS1        0.2595
    116 O          13.4110  -10.8990    0.3750 O.2     1  HIS1       -0.2718
    117 CB         11.1370  -10.5480   -2.0250 C.3     1  HIS1        0.0759
    118 CG         12.1620  -11.4710   -2.6090 C.ar    1  HIS1        0.0818
    119 ND1        12.2130  -12.8160   -2.3020 N.ar    1  HIS1       -0.2268
    120 CD2        13.1820  -11.2430   -3.4730 C.ar    1  HIS1        0.1154
    121 CE1        13.2150  -13.3760   -2.9560 C.ar    1  HIS1        0.1986
    122 NE2        13.8190  -12.4450   -3.6730 N.ar    1  HIS1       -0.2212
    123 N          12.9980   -8.7900   -0.2950 N.am    2  ILE2       -0.1980
    124 CA         14.3110   -8.2730    0.0620 C.3     2  ILE2        0.1595
    125 C          14.5680   -8.2360    1.5690 C.2     2  ILE2        0.2287
    126 O          15.7130   -8.3500    2.0010 O.2     2  ILE2       -0.2864
    127 CB         14.5650   -6.8890   -0.5590 C.3     2  ILE2        0.0276
    128 CG1        14.5500   -6.9920   -2.0780 C.3     2  ILE2        0.0022
    129 CG2        15.9110   -6.3170   -0.0820 C.3     2  ILE2        0.0022
    130 CD1        15.4520   -8.0650   -2.6170 C.3     2  ILE2        0.0001
    131 N          15.4860  -11.9590    2.0930 N.3     1  VAL1       -0.1231
    132 CA         16.8690  -12.2880    1.7120 C.3     1  VAL1        0.1692
    133 C          17.9530  -11.6020    2.5480 C.2     1  VAL1        0.2591
    134 O          18.9210  -12.2330    2.9510 O.2     1  VAL1       -0.2718
    135 CB         17.1600  -12.1830    0.1960 C.3     1  VAL1        0.0266
    136 CG1        16.0280  -12.7690   -0.6260 C.3     1  VAL1        0.0020
    137 CG2        17.4870  -10.7730   -0.2100 C.3     1  VAL1        0.0020
    138 N          17.7940  -10.3120    2.8170 N.am    2  MET2       -0.1979
    139 CA         18.7300   -9.6300    3.7170 C.3     2  MET2        0.1605
    140 C          18.8220  -10.2810    5.1010 C.2     2  MET2        0.2287
    141 O          19.8850  -10.2750    5.7320 O.2     2  MET2       -0.2864
    142 CB         18.4110   -8.1360    3.8080 C.3     2  MET2        0.0413
    143 CG         18.5900   -7.3880    2.4780 C.3     2  MET2        0.0598
    144 SD         20.3260   -7.2860    1.9260 S.3     2  MET2       -0.1393
    145 CE         20.9130   -5.9070    2.9330 C.3     2  MET2        0.0692
    146 N          20.7750  -13.6960    4.6660 N.3     1  LEU1       -0.1245
    147 CA         22.2160  -13.4650    4.5290 C.3     1  LEU1        0.1561
    148 C          22.7750  -12.7300    5.7340 C.2     1  LEU1        0.2260
    149 O          23.9670  -12.4400    5.8000 O.2     1  LEU1       -0.2867
    150 CB         22.5160  -12.6730    3.2580 C.3     1  LEU1        0.0270
    151 CG         22.0200  -13.3820    2.0000 C.3     1  LEU1        0.0019
    152 CD1        22.1550  -12.5450    0.7480 C.3     1  LEU1        0.0001
    153 CD2        22.7010  -14.7410    1.8400 C.3     1  LEU1        0.0001
    154 N          19.2240   -1.8890    1.1610 N.3     1  TYR1       -0.1241
    155 CA         19.7630   -2.6210    0.0290 C.3     1  TYR1        0.1605
    156 C          19.8820   -1.6960   -1.1830 C.2     1  TYR1        0.2264
    157 O          20.9580   -1.5490   -1.7690 O.2     1  TYR1       -0.2867
    158 CB         18.8110   -3.8030   -0.2130 C.3     1  TYR1        0.0534
    159 CG         18.9380   -4.5750   -1.4970 C.ar    1  TYR1       -0.0201
    160 CD2        19.7520   -5.7040   -1.5780 C.ar    1  TYR1       -0.0009
    161 CD1        18.2060   -4.2130   -2.6120 C.ar    1  TYR1       -0.0009
    162 CE2        19.8460   -6.4400   -2.7620 C.ar    1  TYR1        0.0417
    163 CE1        18.3010   -4.9220   -3.7850 C.ar    1  TYR1        0.0417
    164 CZ         19.1120   -6.0360   -3.8580 C.ar    1  TYR1        0.1957
    165 OH         19.1850   -6.7270   -5.0440 O.3     1  TYR1       -0.2866
    166 N          29.4340   -1.9020   -5.7780 N.3     1  ARG1       -0.1245
    167 CA         30.3500   -2.7950   -6.4790 C.3     1  ARG1        0.1563
    168 C          30.8330   -3.9220   -5.5610 C.2     1  ARG1        0.2260
    169 O          30.8300   -5.0880   -5.9350 O.2     1  ARG1       -0.2867
    170 CB         31.5510   -2.0180   -6.9950 C.3     1  ARG1        0.0307
    171 CG         32.6940   -2.8850   -7.5010 C.3     1  ARG1        0.0489
    172 CD         33.9720   -2.0700   -7.5780 C.3     1  ARG1        0.2205
    173 NE         35.0600   -2.8010   -8.2080 N.pl3   1  ARG1       -0.0865
    174 CZ         36.3390   -2.4780   -8.0730 C.cat   1  ARG1        0.5346
    175 NH2        36.6680   -1.4420   -7.3180 N.pl3   1  ARG1        0.1354
    176 NH1        37.2930   -3.1860   -8.6870 N.pl3   1  ARG1        0.1354
    177 N          27.8910   -6.3110   -3.8330 N.3     1  LYS1       -0.1231
    178 CA         27.4610   -7.4560   -4.6400 C.3     1  LYS1        0.1693
    179 C          28.3960   -8.6580   -4.5210 C.2     1  LYS1        0.2591
    180 O          27.9560   -9.7980   -4.5510 O.2     1  LYS1       -0.2718
    181 CB         27.3160   -7.0440   -6.1070 C.3     1  LYS1        0.0285
    182 CG         26.1840   -6.0420   -6.3480 C.3     1  LYS1        0.0035
    183 CD         26.0670   -5.6280   -7.8390 C.3     1  LYS1        0.0206
    184 CE         26.9970   -4.4620   -8.1580 C.3     1  LYS1        0.1093
    185 NZ         27.0480   -4.0910   -9.6120 N.3     1  LYS1       -0.1314
    186 N          29.6940   -8.4020   -4.4240 N.am    2  LYS2       -0.1980
    187 CA         30.6570   -9.4620   -4.1790 C.3     2  LYS2        0.1596
    188 C          30.4330  -10.1170   -2.8120 C.2     2  LYS2        0.2287
    189 O          30.3640  -11.3350   -2.7140 O.2     2  LYS2       -0.2864
    190 CB         32.0760   -8.9140   -4.2990 C.3     2  LYS2        0.0298
    191 CG         32.3280   -8.2220   -5.6350 C.3     2  LYS2        0.0038
    192 CD         33.7780   -7.7770   -5.7830 C.3     2  LYS2        0.0206
    193 CE         34.0190   -7.2320   -7.1920 C.3     2  LYS2        0.1093
    194 NZ         35.2250   -6.3970   -7.2660 N.3     2  LYS2       -0.1314
    195 N          27.6700   -9.9930   -0.9700 N.3     1  PHE1       -0.1227
    196 CA         26.3640  -10.6380   -1.0870 C.3     1  PHE1        0.1736
    197 C          26.4730  -12.0090   -1.8080 C.2     1  PHE1        0.2595
    198 O          26.0000  -13.0250   -1.2890 O.2     1  PHE1       -0.2718
    199 CB         25.4190   -9.6740   -1.8230 C.3     1  PHE1        0.0547
    200 CG         23.9690  -10.1050   -1.8580 C.ar    1  PHE1       -0.0202
    201 CD1        23.5780  -11.2230   -2.5810 C.ar    1  PHE1       -0.0042
    202 CD2        22.9900   -9.3460   -1.2220 C.ar    1  PHE1       -0.0042
    203 CE1        22.2450  -11.6010   -2.6380 C.ar    1  PHE1       -0.0003
    204 CE2        21.6590   -9.7140   -1.2750 C.ar    1  PHE1       -0.0003
    205 CZ         21.2860  -10.8450   -1.9920 C.ar    1  PHE1       -0.0000
    206 N          27.0810  -12.0390   -2.9980 N.am    2  ASP2       -0.1976
    207 CA         27.2670  -13.3130   -3.7120 C.3     2  ASP2        0.1651
    208 C          27.9770  -14.3450   -2.8180 C.2     2  ASP2        0.2291
    209 O          27.5340  -15.4880   -2.6920 O.2     2  ASP2       -0.2864
    210 CB         28.0790  -13.1270   -5.0070 C.3     2  ASP2        0.0714
    211 CG         27.2700  -12.4860   -6.1440 C.2     2  ASP2        0.0525
    212 OD2        26.0520  -12.2380   -5.9890 O.co2   2  ASP2       -0.5491
    213 OD1        27.8700  -12.2400   -7.2090 O.co2   2  ASP2       -0.5491
    214 N          25.8840  -15.6820   -0.0550 N.3     1  GLU1       -0.1245
    215 CA         24.7610  -16.4820   -0.5240 C.3     1  GLU1        0.1565
    216 C          25.2280  -17.9120   -0.7310 C.2     1  GLU1        0.2260
    217 O          24.5690  -18.8580   -0.3010 O.2     1  GLU1       -0.2867
    218 CB         24.1760  -15.9230   -1.8240 C.3     1  GLU1        0.0329
    219 CG         22.9100  -16.6460   -2.2750 C.3     1  GLU1        0.0437
    220 CD         22.5590  -16.3920   -3.7330 C.2     1  GLU1        0.0504
    221 OE1        23.2910  -15.6370   -4.4180 O.co2   1  GLU1       -0.5492
    222 OE2        21.5360  -16.9450   -4.1970 O.co2   1  GLU1       -0.5492
    223 N          36.6750  -13.6870   -3.4380 N.3     1  TYR1       -0.1241
    224 CA         36.0720  -13.3570   -4.7150 C.3     1  TYR1        0.1605
    225 C          37.0710  -13.5550   -5.8460 C.2     1  TYR1        0.2264
    226 O          37.7440  -12.6150   -6.2460 O.2     1  TYR1       -0.2867
    227 CB         35.5380  -11.9150   -4.7170 C.3     1  TYR1        0.0534
    228 CG         34.5230  -11.6710   -5.8110 C.ar    1  TYR1       -0.0201
    229 CD2        33.1970  -12.0630   -5.6550 C.ar    1  TYR1       -0.0009
    230 CD1        34.8900  -11.0660   -7.0090 C.ar    1  TYR1       -0.0009
    231 CE2        32.2600  -11.8450   -6.6630 C.ar    1  TYR1        0.0417
    232 CE1        33.9560  -10.8490   -8.0170 C.ar    1  TYR1        0.0417
    233 CZ         32.6460  -11.2380   -7.8340 C.ar    1  TYR1        0.1957
    234 OH         31.7060  -11.0400   -8.8360 O.3     1  TYR1       -0.2866
    235 N          33.5470  -16.4430   -9.5120 N.3     1  VAL1       -0.1245
    236 CA         32.6980  -15.8200  -10.5220 C.3     1  VAL1        0.1561
    237 C          32.0270  -16.8680  -11.4200 C.2     1  VAL1        0.2260
    238 O          30.8300  -16.8040  -11.6710 O.2     1  VAL1       -0.2867
    239 CB         33.5040  -14.8060  -11.3720 C.3     1  VAL1        0.0252
    240 CG1        32.6450  -14.2370  -12.5090 C.3     1  VAL1        0.0019
    241 CG2        34.0110  -13.6740  -10.4820 C.3     1  VAL1        0.0019
    242 N          29.3850  -18.8020   -9.4460 N.3     1  MET1       -0.1230
    243 CA         28.1630  -18.0270   -9.3220 C.3     1  MET1        0.1702
    244 C          27.3540  -18.0790  -10.6300 C.2     1  MET1        0.2592
    245 O          26.1390  -18.2500  -10.6040 O.2     1  MET1       -0.2718
    246 CB         28.4830  -16.5810   -8.9050 C.3     1  MET1        0.0401
    247 CG         27.2690  -15.6970   -8.6170 C.3     1  MET1        0.0596
    248 SD         26.3760  -16.0170   -7.0620 S.3     1  MET1       -0.1393
    249 CE         25.0000  -16.9170   -7.7180 C.3     1  MET1        0.0692
    250 N          28.0380  -17.9600  -11.7620 N.am    2  LYS2       -0.1980
    251 CA         27.3780  -17.9900  -13.0810 C.3     2  LYS2        0.1596
    252 C          26.6940  -19.3360  -13.3230 C.2     2  LYS2        0.2287
    253 O          25.5730  -19.3900  -13.8230 O.2     2  LYS2       -0.2864
    254 CB         28.3980  -17.7290  -14.2060 C.3     2  LYS2        0.0298
    255 CG         28.7720  -16.2500  -14.4220 C.3     2  LYS2        0.0038
    256 CD         29.9160  -16.1340  -15.4260 C.3     2  LYS2        0.0206
    257 CE         30.4480  -14.7040  -15.5480 C.3     2  LYS2        0.1093
    258 NZ         31.6640  -14.6680  -16.4300 N.3     2  LYS2       -0.1314
    259 N          25.7570  -21.4160  -11.0210 N.3     1  TYR1       -0.1227
    260 CA         24.6860  -21.5010  -10.0280 C.3     1  TYR1        0.1736
    261 C          23.3950  -20.8110  -10.5000 C.2     1  TYR1        0.2595
    262 O          22.2920  -21.3410  -10.3270 O.2     1  TYR1       -0.2718
    263 CB         25.1590  -20.8940   -8.7070 C.3     1  TYR1        0.0548
    264 CG         24.1690  -20.9810   -7.5760 C.ar    1  TYR1       -0.0200
    265 CD1        23.2250  -19.9800   -7.3700 C.ar    1  TYR1       -0.0009
    266 CD2        24.1960  -22.0550   -6.6910 C.ar    1  TYR1       -0.0009
    267 CE1        22.3170  -20.0650   -6.3230 C.ar    1  TYR1        0.0417
    268 CE2        23.2990  -22.1430   -5.6520 C.ar    1  TYR1        0.0417
    269 CZ         22.3670  -21.1590   -5.4720 C.ar    1  TYR1        0.1957
    270 OH         21.4990  -21.2610   -4.4110 O.3     1  TYR1       -0.2866
    271 N          23.5490  -19.6260  -11.0780 N.am    2  ASP2       -0.1976
    272 CA         22.4370  -18.8890  -11.6690 C.3     2  ASP2        0.1651
    273 C          21.8950  -19.6210  -12.9020 C.2     2  ASP2        0.2291
    274 O          20.7030  -19.6390  -13.1280 O.2     2  ASP2       -0.2864
    275 CB         22.8900  -17.4800  -12.0720 C.3     2  ASP2        0.0714
    276 CG         22.9180  -16.5050  -10.8820 C.2     2  ASP2        0.0525
    277 OD2        22.3540  -16.8270   -9.8190 O.co2   2  ASP2       -0.5491
    278 OD1        23.5300  -15.4330  -11.0140 O.co2   2  ASP2       -0.5491
    279 N          18.9450  -18.5480  -15.1610 N.3     1  CYS1       -0.1259
    280 CA         19.4570  -17.2020  -15.3370 C.3     1  CYS1        0.1395
    281 C          20.8770  -17.2110  -15.8720 C.2     1  CYS1        0.0687
    282 OXT        21.5920  -16.2220  -15.7640 O.co2   1  CYS1       -0.5477
    283 CB         19.3810  -16.4190  -14.0270 C.3     1  CYS1        0.0933
    284 SG         17.7280  -16.2360  -13.3620 S.3     1  CYS1       -0.0802
    285 O          21.3400  -18.1960  -16.4330 O.co2   1  CYS1       -0.5477
@<TRIPOS>UNITY_ATOM_ATTR
21 1
charge -1
52 1
charge -1
103 1
charge -1
212 1
charge -1
221 1
charge -1
277 1
charge -1
282 1
charge -1
@<TRIPOS>BOND
     1     1     2    1
     2     2     3    1
     3     2     5    1
     4     3     4    2
     5     5     6    1
     6     5     7    1
     7     8     9    1
     8     9    10    1
     9     9    12    1
    10    10    14   am
    11    10    11    2
    12    12    13    1
    13    14    15    1
    14    15    18    1
    15    15    16    1
    16    16    17    2
    17    18    19    1
    18    19    20    1
    19    20    21   ar
    20    20    22   ar
    21    23    24    1
    22    24    27    1
    23    24    25    1
    24    25    26    2
    25    27    28    1
    26    28    29    1
    27    28    30    1
    28    31    32    1
    29    32    33    1
    30    32    35    1
    31    33    39   am
    32    33    34    2
    33    35    36    1
    34    36    38    1
    35    36    37    1
    36    39    40    1
    37    40    43    1
    38    40    41    1
    39    41    45   am
    40    41    42    2
    41    43    44    1
    42    44   284    1
    43    45    46    1
    44    46    49    1
    45    46    47    1
    46    47    48    2
    47    47    54   am
    48    49    50    1
    49    50    51    1
    50    51    53   ar
    51    51    52   ar
    52    54    55    1
    53    55    56    1
    54    55    58    1
    55    56    62   am
    56    56    57    2
    57    58    59    1
    58    58    60    1
    59    59    61    1
    60    62    63    1
    61    63    64    1
    62    63    66    1
    63    64    73   am
    64    64    65    2
    65    66    67    1
    66    67    68    1
    67    68    69    1
    68    69    70    2
    69    70    72    1
    70    70    71    1
    71    73    74    1
    72    74    77    1
    73    74    75    1
    74    75    76    2
    75    75    84   am
    76    77    78    1
    77    78    79    1
    78    79    80    1
    79    80    81    2
    80    81    82    1
    81    81    83    1
    82    84    85    1
    83    85    86    1
    84    85    88    1
    85    86    96   am
    86    86    87    2
    87    88    89    1
    88    89    91   ar
    89    89    90   ar
    90    90    92   ar
    91    91    93   ar
    92    92    94   ar
    93    93    94   ar
    94    94    95    1
    95    96    97    1
    96    97   100    1
    97    97    98    1
    98    98    99    2
    99   100   101    1
   100   101   102    1
   101   102   104   ar
   102   102   103   ar
   103   105   106    1
   104   106   109    1
   105   106   107    1
   106   107   108    2
   107   109   110    1
   108   110   111    1
   109   111   112    1
   110   113   114    1
   111   114   117    1
   112   114   115    1
   113   115   123   am
   114   115   116    2
   115   117   118    1
   116   118   120   ar
   117   118   119   ar
   118   119   121   ar
   119   120   122   ar
   120   121   122   ar
   121   123   124    1
   122   124   127    1
   123   124   125    1
   124   125   126    2
   125   127   128    1
   126   127   129    1
   127   128   130    1
   128   131   132    1
   129   132   135    1
   130   132   133    1
   131   133   138   am
   132   133   134    2
   133   135   136    1
   134   135   137    1
   135   138   139    1
   136   139   142    1
   137   139   140    1
   138   140   141    2
   139   142   143    1
   140   143   144    1
   141   144   145    1
   142   146   147    1
   143   147   150    1
   144   147   148    1
   145   148   149    2
   146   150   151    1
   147   151   152    1
   148   151   153    1
   149   154   155    1
   150   155   156    1
   151   155   158    1
   152   156   157    2
   153   158   159    1
   154   159   161   ar
   155   159   160   ar
   156   160   162   ar
   157   161   163   ar
   158   162   164   ar
   159   163   164   ar
   160   164   165    1
   161   166   167    1
   162   167   170    1
   163   167   168    1
   164   168   169    2
   165   170   171    1
   166   171   172    1
   167   172   173    1
   168   173   174    2
   169   174   176    1
   170   174   175    1
   171   177   178    1
   172   178   181    1
   173   178   179    1
   174   179   180    2
   175   179   186   am
   176   181   182    1
   177   182   183    1
   178   183   184    1
   179   184   185    1
   180   186   187    1
   181   187   190    1
   182   187   188    1
   183   188   189    2
   184   190   191    1
   185   191   192    1
   186   192   193    1
   187   193   194    1
   188   195   196    1
   189   196   199    1
   190   196   197    1
   191   197   206   am
   192   197   198    2
   193   199   200    1
   194   200   201   ar
   195   200   202   ar
   196   201   203   ar
   197   202   204   ar
   198   203   205   ar
   199   204   205   ar
   200   206   207    1
   201   207   210    1
   202   207   208    1
   203   208   209    2
   204   210   211    1
   205   211   213   ar
   206   211   212   ar
   207   214   215    1
   208   215   218    1
   209   215   216    1
   210   216   217    2
   211   218   219    1
   212   219   220    1
   213   220   221   ar
   214   220   222   ar
   215   223   224    1
   216   224   225    1
   217   224   227    1
   218   225   226    2
   219   227   228    1
   220   228   230   ar
   221   228   229   ar
   222   229   231   ar
   223   230   232   ar
   224   231   233   ar
   225   232   233   ar
   226   233   234    1
   227   235   236    1
   228   236   237    1
   229   236   239    1
   230   237   238    2
   231   239   240    1
   232   239   241    1
   233   242   243    1
   234   243   244    1
   235   243   246    1
   236   244   250   am
   237   244   245    2
   238   246   247    1
   239   247   248    1
   240   248   249    1
   241   250   251    1
   242   251   254    1
   243   251   252    1
   244   252   253    2
   245   254   255    1
   246   255   256    1
   247   256   257    1
   248   257   258    1
   249   259   260    1
   250   260   261    1
   251   260   263    1
   252   261   271   am
   253   261   262    2
   254   263   264    1
   255   264   265   ar
   256   264   266   ar
   257   265   267   ar
   258   266   268   ar
   259   267   269   ar
   260   268   269   ar
   261   269   270    1
   262   271   272    1
   263   272   273    1
   264   272   275    1
   265   273   274    2
   266   275   276    1
   267   276   278   ar
   268   276   277   ar
   269   279   280    1
   270   280   281    1
   271   280   283    1
   272   281   285   ar
   273   281   282   ar
   274   283   284    1
