@<TRIPOS>MOLECULE
./2qeh/protein.pdb
 196 194 0 0 0
SMALL
GASTEIGER

@<TRIPOS>ATOM
      1 N          20.7750  -13.6960    4.6660 N.3     1  LEU1       -0.1231
      2 CA         22.2160  -13.4650    4.5290 C.3     1  LEU1        0.1693
      3 C          22.7750  -12.7300    5.7340 C.2     1  LEU1        0.2592
      4 O          23.9670  -12.4400    5.8000 O.2     1  LEU1       -0.2718
      5 CB         22.5160  -12.6730    3.2580 C.3     1  LEU1        0.0284
      6 CG         22.0200  -13.3820    2.0000 C.3     1  LEU1        0.0019
      7 CD1        22.1550  -12.5450    0.7480 C.3     1  LEU1        0.0001
      8 CD2        22.7010  -14.7410    1.8400 C.3     1  LEU1        0.0001
      9 N          21.8990  -12.4320    6.6850 N.am    2  ASP2       -0.1962
     10 CA         22.3120  -11.9210    7.9780 C.3     2  ASP2        0.1783
     11 C          22.9400  -10.5340    7.8590 C.2     2  ASP2        0.2620
     12 O          23.9500  -10.2600    8.4870 O.2     2  ASP2       -0.2715
     13 CB         23.2890  -12.8910    8.6410 C.3     2  ASP2        0.0728
     14 CG         23.3580  -12.7080   10.1430 C.2     2  ASP2        0.0526
     15 OD1        22.4020  -12.1380   10.7120 O.co2   2  ASP2       -0.5491
     16 OD2        24.3690  -13.1240   10.7510 O.co2   2  ASP2       -0.5491
     17 N          22.3280   -9.6750    7.0480 N.am    3  PHE3       -0.1974
     18 CA         22.8310   -8.3210    6.8070 C.3     3  PHE3        0.1639
     19 C          21.9970   -7.2460    7.5300 C.2     3  PHE3        0.2290
     20 O          22.4380   -6.1050    7.6510 O.2     3  PHE3       -0.2864
     21 CB         22.8500   -8.0020    5.2980 C.3     3  PHE3        0.0560
     22 CG         23.9030   -8.7600    4.5030 C.ar    3  PHE3       -0.0200
     23 CD2        25.1000   -9.1490    5.0900 C.ar    3  PHE3       -0.0042
     24 CD1        23.6900   -9.0620    3.1670 C.ar    3  PHE3       -0.0042
     25 CE2        26.0590   -9.8370    4.3670 C.ar    3  PHE3       -0.0003
     26 CE1        24.6530   -9.7550    2.4210 C.ar    3  PHE3       -0.0003
     27 CZ         25.8450  -10.1260    3.0190 C.ar    3  PHE3       -0.0000
     28 N          28.0900   -3.7180   11.3310 N.3     1  HIS1       -0.1227
     29 CA         29.2070   -4.5940   11.6480 C.3     1  HIS1        0.1749
     30 C          29.1930   -5.9290   10.8900 C.2     1  HIS1        0.2596
     31 O          30.2100   -6.6110   10.8160 O.2     1  HIS1       -0.2718
     32 CB         29.3430   -4.7860   13.1650 C.3     1  HIS1        0.0718
     33 CG         29.3550   -3.4940   13.9250 C.2     1  HIS1        0.0650
     34 ND1        30.4920   -2.7270   14.0690 N.2     1  HIS1       -0.2310
     35 CD2        28.3610   -2.8160   14.5460 C.3     1  HIS1        0.1683
     36 CE1        30.1980   -1.6360   14.7520 C.2     1  HIS1        0.1939
     37 NE2        28.9130   -1.6670   15.0600 N.2     1  HIS1       -0.2440
     38 N          28.0600   -6.2690   10.2890 N.am    2  LYS2       -0.1966
     39 CA         28.0090   -7.3910    9.3390 C.3     2  LYS2        0.1728
     40 C          28.6290   -7.1060    7.9550 C.2     2  LYS2        0.2616
     41 O          28.9500   -8.0400    7.2050 O.2     2  LYS2       -0.2715
     42 CB         26.5670   -7.8820    9.1720 C.3     2  LYS2        0.0311
     43 CG         25.9330   -8.3700   10.4450 C.3     2  LYS2        0.0038
     44 CD         26.5430   -9.6960   10.9010 C.3     2  LYS2        0.0206
     45 CE         25.9870  -10.0890   12.2610 C.3     2  LYS2        0.1093
     46 NZ         25.7220  -11.5460   12.4030 N.3     2  LYS2       -0.1314
     47 N          28.8040   -5.8310    7.6210 N.am    3  LEU3       -0.1977
     48 CA         29.2650   -5.4450    6.2780 C.3     3  LEU3        0.1596
     49 C          30.6120   -4.7150    6.2360 C.2     3  LEU3        0.2287
     50 O          31.3750   -4.8400    5.2770 O.2     3  LEU3       -0.2864
     51 CB         28.1890   -4.6070    5.5780 C.3     3  LEU3        0.0297
     52 CG         26.9640   -5.3960    5.0950 C.3     3  LEU3        0.0022
     53 CD2        25.8440   -4.4420    4.7330 C.3     3  LEU3        0.0001
     54 CD1        27.3140   -6.3140    3.9160 C.3     3  LEU3        0.0001
     55 N          33.6900   -4.9590    7.7920 N.3     1  ASP1       -0.1227
     56 CA         34.9400   -5.7010    7.6210 C.3     1  ASP1        0.1733
     57 C          34.9470   -6.4870    6.2960 C.2     1  ASP1        0.2438
     58 O          35.9120   -6.4400    5.5470 O.2     1  ASP1       -0.2733
     59 CB         35.1680   -6.6500    8.8140 C.3     1  ASP1        0.0700
     60 CG         35.8010   -5.9470   10.0230 C.2     1  ASP1        0.0523
     61 OD1        36.3320   -4.8230    9.8720 O.co2   1  ASP1       -0.5491
     62 OD2        35.7760   -6.5310   11.1290 O.co2   1  ASP1       -0.5491
     63 N          33.8730   -7.2370    6.0240 N.am    2  PRO2       -0.2718
     64 CA         33.7160   -7.9530    4.7400 C.3     2  PRO2        0.1535
     65 C          33.9220   -7.0760    3.4930 C.2     2  PRO2        0.2598
     66 O          34.6510   -7.4710    2.5840 O.2     2  PRO2       -0.2715
     67 CB         32.2870   -8.5030    4.8200 C.3     2  PRO2        0.0310
     68 CG         32.0700   -8.7070    6.2950 C.3     2  PRO2        0.0237
     69 CD         32.7650   -7.5230    6.9530 C.3     2  PRO2        0.0939
     70 N          33.3040   -5.8990    3.4670 N.am    3  LEU3       -0.1978
     71 CA         33.5310   -4.9250    2.3970 C.3     3  LEU3        0.1596
     72 C          34.9760   -4.4880    2.3150 C.2     3  LEU3        0.2287
     73 O          35.5670   -4.4830    1.2440 O.2     3  LEU3       -0.2864
     74 CB         32.6310   -3.6950    2.5670 C.3     3  LEU3        0.0297
     75 CG         31.1210   -3.8990    2.4320 C.3     3  LEU3        0.0022
     76 CD2        30.3930   -2.6360    2.8520 C.3     3  LEU3        0.0001
     77 CD1        30.7020   -4.3120    1.0010 C.3     3  LEU3        0.0001
     78 N          37.7430   -5.9330    3.4820 N.3     1  ILE1       -0.1231
     79 CA         38.6410   -7.0080    3.0880 C.3     1  ILE1        0.1692
     80 C          38.7210   -7.1460    1.5740 C.2     1  ILE1        0.2591
     81 O          39.7810   -7.4130    1.0030 O.2     1  ILE1       -0.2718
     82 CB         38.2270   -8.3420    3.7160 C.3     1  ILE1        0.0266
     83 CG1        38.5110   -8.3110    5.2200 C.3     1  ILE1        0.0019
     84 CG2        38.9900   -9.4930    3.0630 C.3     1  ILE1        0.0020
     85 CD1        37.7780   -9.3800    6.0210 C.3     1  ILE1        0.0001
     86 N          37.5910   -6.9680    0.9120 N.am    2  ILE2       -0.1980
     87 CA         37.5730   -7.1050   -0.5300 C.3     2  ILE2        0.1595
     88 C          38.0760   -5.8480   -1.2130 C.2     2  ILE2        0.2287
     89 O          38.8790   -5.9160   -2.1330 O.2     2  ILE2       -0.2864
     90 CB         36.1840   -7.4840   -1.0310 C.3     2  ILE2        0.0276
     91 CG1        35.8520   -8.9030   -0.5460 C.3     2  ILE2        0.0022
     92 CG2        36.1180   -7.3400   -2.5430 C.3     2  ILE2        0.0022
     93 CD1        34.4780   -9.3920   -0.9190 C.3     2  ILE2        0.0001
     94 N          29.6940   -8.4020   -4.4240 N.3     1  LYS1       -0.1231
     95 CA         30.6570   -9.4620   -4.1790 C.3     1  LYS1        0.1693
     96 C          30.4330  -10.1170   -2.8120 C.2     1  LYS1        0.2592
     97 O          30.3640  -11.3350   -2.7140 O.2     1  LYS1       -0.2718
     98 CB         32.0760   -8.9140   -4.2990 C.3     1  LYS1        0.0285
     99 CG         32.3280   -8.2220   -5.6350 C.3     1  LYS1        0.0035
    100 CD         33.7780   -7.7770   -5.7830 C.3     1  LYS1        0.0206
    101 CE         34.0190   -7.2320   -7.1920 C.3     1  LYS1        0.1093
    102 NZ         35.2250   -6.3970   -7.2660 N.3     1  LYS1       -0.1314
    103 N          30.2940   -9.2980   -1.7720 N.am    2  VAL2       -0.1966
    104 CA         30.0230   -9.7910   -0.4280 C.3     2  VAL2        0.1727
    105 C          28.7050  -10.5480   -0.3510 C.2     2  VAL2        0.2616
    106 O          28.6290  -11.5920    0.2660 O.2     2  VAL2       -0.2715
    107 CB         30.0060   -8.6500    0.6100 C.3     2  VAL2        0.0290
    108 CG2        29.3700   -9.1460    1.9290 C.3     2  VAL2        0.0023
    109 CG1        31.4370   -8.1370    0.8660 C.3     2  VAL2        0.0023
    110 N          27.6700   -9.9930   -0.9700 N.am    3  PHE3       -0.1974
    111 CA         26.3640  -10.6380   -1.0870 C.3     3  PHE3        0.1639
    112 C          26.4730  -12.0090   -1.8080 C.2     3  PHE3        0.2290
    113 O          26.0000  -13.0250   -1.2890 O.2     3  PHE3       -0.2864
    114 CB         25.4190   -9.6740   -1.8230 C.3     3  PHE3        0.0560
    115 CG         23.9690  -10.1050   -1.8580 C.ar    3  PHE3       -0.0200
    116 CD1        23.5780  -11.2230   -2.5810 C.ar    3  PHE3       -0.0042
    117 CD2        22.9900   -9.3460   -1.2220 C.ar    3  PHE3       -0.0042
    118 CE1        22.2450  -11.6010   -2.6380 C.ar    3  PHE3       -0.0003
    119 CE2        21.6590   -9.7140   -1.2750 C.ar    3  PHE3       -0.0003
    120 CZ         21.2860  -10.8450   -1.9920 C.ar    3  PHE3       -0.0000
    121 N          29.1020  -13.9410   -2.2270 N.3     1  LEU1       -0.1231
    122 CA         29.9020  -14.8340   -1.4020 C.3     1  LEU1        0.1693
    123 C          29.0570  -15.4050   -0.2580 C.2     1  LEU1        0.2591
    124 O          29.0420  -16.6170   -0.0220 O.2     1  LEU1       -0.2718
    125 CB         31.1600  -14.1050   -0.8750 C.3     1  LEU1        0.0284
    126 CG         32.3360  -14.0060   -1.8680 C.3     1  LEU1        0.0019
    127 CD2        33.3640  -12.9880   -1.4130 C.3     1  LEU1        0.0001
    128 CD1        33.0020  -15.3730   -2.0330 C.3     1  LEU1        0.0001
    129 N          28.3280  -14.5430    0.4360 N.am    2  MET2       -0.1979
    130 CA         27.5510  -14.9990    1.5730 C.3     2  MET2        0.1605
    131 C          26.4360  -15.9380    1.1270 C.2     2  MET2        0.2287
    132 O          26.0830  -16.8840    1.8390 O.2     2  MET2       -0.2864
    133 CB         26.9880  -13.8200    2.3730 C.3     2  MET2        0.0413
    134 CG         26.2220  -14.2380    3.6270 C.3     2  MET2        0.0598
    135 SD         27.2610  -15.1000    4.8290 S.3     2  MET2       -0.1393
    136 CE         28.3450  -13.7280    5.2910 C.3     2  MET2        0.0692
    137 N          28.2020  -19.2570    0.4320 N.3     1  LYS1       -0.1245
    138 CA         28.6690  -19.8450    1.6880 C.3     1  LYS1        0.1561
    139 C          27.5090  -20.4620    2.4680 C.2     1  LYS1        0.2260
    140 O          27.5960  -21.5950    2.9400 O.2     1  LYS1       -0.2867
    141 CB         29.3830  -18.8060    2.5530 C.3     1  LYS1        0.0271
    142 CG         30.7710  -18.4630    2.0250 C.3     1  LYS1        0.0035
    143 CD         31.3640  -17.2350    2.7010 C.3     1  LYS1        0.0206
    144 CE         32.5400  -16.7080    1.8600 C.3     1  LYS1        0.1093
    145 NZ         33.3620  -15.7370    2.6120 N.3     1  LYS1       -0.1314
    146 N          33.8390  -21.4860    3.8210 N.3     1  GLN1       -0.1231
    147 CA         33.6220  -20.2350    4.5480 C.3     1  GLN1        0.1698
    148 C          34.6730  -19.1550    4.3140 C.2     1  GLN1        0.2592
    149 O          34.3920  -17.9710    4.4870 O.2     1  GLN1       -0.2718
    150 CB         33.4750  -20.5030    6.0550 C.3     1  GLN1        0.0381
    151 CG         32.2190  -21.2930    6.4020 C.3     1  GLN1        0.0905
    152 CD         30.9330  -20.6040    5.9640 C.2     1  GLN1        0.2608
    153 OE1        30.0950  -21.2090    5.2930 O.2     1  GLN1       -0.2717
    154 NE2        30.7660  -19.3430    6.3520 N.am    1  GLN1       -0.0878
    155 N          35.8940  -19.5490    3.9650 N.am    2  HIS2       -0.1962
    156 CA         36.9580  -18.5580    3.7070 C.3     2  HIS2        0.1787
    157 C          37.0670  -18.1840    2.2210 C.2     2  HIS2        0.2620
    158 O          37.9940  -17.4830    1.8150 O.2     2  HIS2       -0.2715
    159 CB         38.3160  -19.0740    4.2130 C.3     2  HIS2        0.0785
    160 CG         38.8250  -20.2520    3.4450 C.ar    2  HIS2        0.0821
    161 ND1        38.1680  -21.4630    3.4250 N.ar    2  HIS2       -0.2267
    162 CD2        39.9100  -20.3970    2.6460 C.ar    2  HIS2        0.1154
    163 CE1        38.8300  -22.3080    2.6550 C.ar    2  HIS2        0.1986
    164 NE2        39.8910  -21.6860    2.1700 N.ar    2  HIS2       -0.2212
    165 N          36.1090  -18.6370    1.4160 N.am    3  GLN3       -0.1963
    166 CA         36.1290  -18.3460   -0.0150 C.3     3  GLN3        0.1733
    167 C          36.3300  -16.8620   -0.2720 C.2     3  GLN3        0.2616
    168 O          35.6600  -16.0280    0.3330 O.2     3  GLN3       -0.2715
    169 CB         34.8330  -18.8130   -0.6910 C.3     3  GLN3        0.0408
    170 CG         34.8080  -18.5510   -2.2100 C.3     3  GLN3        0.0908
    171 CD         35.8030  -19.4170   -2.9590 C.2     3  GLN3        0.2608
    172 OE1        35.8570  -20.6210   -2.7540 O.2     3  GLN3       -0.2717
    173 NE2        36.5850  -18.8100   -3.8370 N.am    3  GLN3       -0.0878
    174 N          37.2530  -16.5380   -1.1760 N.am    4  ARG4       -0.1963
    175 CA         37.4250  -15.1670   -1.6460 C.3     4  ARG4        0.1729
    176 C          36.7720  -14.9470   -3.0240 C.2     4  ARG4        0.2616
    177 O          36.3760  -15.8940   -3.7030 O.2     4  ARG4       -0.2715
    178 CB         38.9200  -14.8100   -1.7090 C.3     4  ARG4        0.0348
    179 CG         39.6520  -14.9360   -0.3650 C.3     4  ARG4        0.0492
    180 CD         41.0120  -14.2720   -0.3980 C.3     4  ARG4        0.2205
    181 NE         40.9780  -12.9590   -1.0420 N.pl3   4  ARG4       -0.0865
    182 CZ         40.7440  -11.8110   -0.4050 C.cat   4  ARG4        0.5346
    183 NH2        40.5240  -11.8030    0.9060 N.pl3   4  ARG4        0.1354
    184 NH1        40.7300  -10.6660   -1.0810 N.pl3   4  ARG4        0.1354
    185 N          36.6750  -13.6870   -3.4380 N.am    5  TYR5       -0.1974
    186 CA         36.0720  -13.3570   -4.7150 C.3     5  TYR5        0.1639
    187 C          37.0710  -13.5550   -5.8460 C.2     5  TYR5        0.2290
    188 O          37.7440  -12.6150   -6.2460 O.2     5  TYR5       -0.2864
    189 CB         35.5380  -11.9150   -4.7170 C.3     5  TYR5        0.0560
    190 CG         34.5230  -11.6710   -5.8110 C.ar    5  TYR5       -0.0198
    191 CD2        33.1970  -12.0630   -5.6550 C.ar    5  TYR5       -0.0009
    192 CD1        34.8900  -11.0660   -7.0090 C.ar    5  TYR5       -0.0009
    193 CE2        32.2600  -11.8450   -6.6630 C.ar    5  TYR5        0.0417
    194 CE1        33.9560  -10.8490   -8.0170 C.ar    5  TYR5        0.0417
    195 CZ         32.6460  -11.2380   -7.8340 C.ar    5  TYR5        0.1957
    196 OH         31.7060  -11.0400   -8.8360 O.3     5  TYR5       -0.2866
@<TRIPOS>UNITY_ATOM_ATTR
15 1
charge -1
61 1
charge -1
@<TRIPOS>BOND
     1     1     2    1
     2     2     5    1
     3     2     3    1
     4     3     4    2
     5     3     9   am
     6     5     6    1
     7     6     7    1
     8     6     8    1
     9     9    10    1
    10    10    11    1
    11    10    13    1
    12    11    17   am
    13    11    12    2
    14    13    14    1
    15    14    15   ar
    16    14    16   ar
    17    17    18    1
    18    18    21    1
    19    18    19    1
    20    19    20    2
    21    21    22    1
    22    22    24   ar
    23    22    23   ar
    24    23    25   ar
    25    24    26   ar
    26    25    27   ar
    27    26    27   ar
    28    28    29    1
    29    29    30    1
    30    29    32    1
    31    30    38   am
    32    30    31    2
    33    32    33    1
    34    33    34    2
    35    33    35    1
    36    34    36    1
    37    35    37    1
    38    36    37    2
    39    38    39    1
    40    39    40    1
    41    39    42    1
    42    40    41    2
    43    40    47   am
    44    42    43    1
    45    43    44    1
    46    44    45    1
    47    45    46    1
    48    47    48    1
    49    48    51    1
    50    48    49    1
    51    49    50    2
    52    51    52    1
    53    52    54    1
    54    52    53    1
    55    55    56    1
    56    56    57    1
    57    56    59    1
    58    57    58    2
    59    57    63   am
    60    59    60    1
    61    60    61   ar
    62    60    62   ar
    63    63    64    1
    64    63    69    1
    65    64    65    1
    66    64    67    1
    67    65    66    2
    68    65    70   am
    69    67    68    1
    70    68    69    1
    71    70    71    1
    72    71    72    1
    73    71    74    1
    74    72    73    2
    75    74    75    1
    76    75    77    1
    77    75    76    1
    78    78    79    1
    79    79    80    1
    80    79    82    1
    81    80    86   am
    82    80    81    2
    83    82    84    1
    84    82    83    1
    85    83    85    1
    86    86    87    1
    87    87    88    1
    88    87    90    1
    89    88    89    2
    90    90    92    1
    91    90    91    1
    92    91    93    1
    93    94    95    1
    94    95    98    1
    95    95    96    1
    96    96    97    2
    97    96   103   am
    98    98    99    1
    99    99   100    1
   100   100   101    1
   101   101   102    1
   102   103   104    1
   103   104   105    1
   104   104   107    1
   105   105   110   am
   106   105   106    2
   107   107   109    1
   108   107   108    1
   109   110   111    1
   110   111   114    1
   111   111   112    1
   112   112   113    2
   113   114   115    1
   114   115   116   ar
   115   115   117   ar
   116   116   118   ar
   117   117   119   ar
   118   118   120   ar
   119   119   120   ar
   120   121   122    1
   121   122   125    1
   122   122   123    1
   123   123   124    2
   124   123   129   am
   125   125   126    1
   126   126   128    1
   127   126   127    1
   128   129   130    1
   129   130   131    1
   130   130   133    1
   131   131   132    2
   132   133   134    1
   133   134   135    1
   134   135   136    1
   135   137   138    1
   136   138   139    1
   137   138   141    1
   138   139   140    2
   139   141   142    1
   140   142   143    1
   141   143   144    1
   142   144   145    1
   143   146   147    1
   144   147   148    1
   145   147   150    1
   146   148   155   am
   147   148   149    2
   148   150   151    1
   149   151   152    1
   150   152   153    2
   151   152   154   am
   152   155   156    1
   153   156   157    1
   154   156   159    1
   155   157   165   am
   156   157   158    2
   157   159   160    1
   158   160   162   ar
   159   160   161   ar
   160   161   163   ar
   161   162   164   ar
   162   163   164   ar
   163   165   166    1
   164   166   169    1
   165   166   167    1
   166   167   174   am
   167   167   168    2
   168   169   170    1
   169   170   171    1
   170   171   173   am
   171   171   172    2
   172   174   175    1
   173   175   176    1
   174   175   178    1
   175   176   177    2
   176   176   185   am
   177   178   179    1
   178   179   180    1
   179   180   181    1
   180   181   182    2
   181   182   184    1
   182   182   183    1
   183   185   186    1
   184   186   187    1
   185   186   189    1
   186   187   188    2
   187   189   190    1
   188   190   192   ar
   189   190   191   ar
   190   191   193   ar
   191   192   194   ar
   192   193   195   ar
   193   194   195   ar
   194   195   196    1
