@<TRIPOS>MOLECULE
./5tln/protein.pdb
 246 242 0 0 0
SMALL
GASTEIGER

@<TRIPOS>ATOM
      1 N          42.3110   13.8020    2.5170 N.3     1  TYR1       -0.1227
      2 CA         43.0710   13.9650    1.2570 C.3     1  TYR1        0.1736
      3 C          44.5260   14.2320    1.5940 C.2     1  TYR1        0.2595
      4 O          44.9450   15.2650    2.2330 O.2     1  TYR1       -0.2718
      5 CB         42.3140   15.0350    0.4600 C.3     1  TYR1        0.0548
      6 CG         42.9220   15.1820   -0.8470 C.ar    1  TYR1       -0.0200
      7 CD1        42.7760   14.1670   -1.7850 C.ar    1  TYR1       -0.0009
      8 CD2        43.6900   16.2610   -1.2060 C.ar    1  TYR1       -0.0009
      9 CE1        43.4020   14.2150   -3.0360 C.ar    1  TYR1        0.0417
     10 CE2        44.3680   16.3420   -2.4330 C.ar    1  TYR1        0.0417
     11 CZ         44.1780   15.3250   -3.2980 C.ar    1  TYR1        0.1957
     12 OH         44.7360   15.4050   -4.4960 O.3     1  TYR1       -0.2866
     13 N          45.3810   13.3070    1.1160 N.am    2  ASN2       -0.1960
     14 CA         46.7740   13.4690    1.3700 C.3     2  ASN2        0.1819
     15 C          47.5640   14.2450    0.3710 C.2     2  ASN2        0.2621
     16 O          48.4650   13.7500   -0.2220 O.2     2  ASN2       -0.2715
     17 CB         47.4510   12.0810    1.6090 C.3     2  ASN2        0.1195
     18 CG         47.1290   11.4180    2.9650 C.2     2  ASN2        0.2630
     19 OD1        46.8930   11.9530    4.0630 O.2     2  ASN2       -0.2716
     20 ND2        47.1400   10.1460    2.9920 N.am    2  ASN2       -0.0877
     21 N          47.2470   15.4890    0.2580 N.am    3  ASN3       -0.1958
     22 CA         47.9640   16.3390   -0.7130 C.3     3  ASN3        0.1819
     23 C          47.3560   17.7320   -0.7630 C.2     3  ASN3        0.2621
     24 O          46.3230   18.0650   -0.2280 O.2     3  ASN3       -0.2715
     25 CB         47.8710   15.5150   -1.9790 C.3     3  ASN3        0.1195
     26 CG         49.0280   15.7090   -3.0340 C.2     3  ASN3        0.2630
     27 OD1        50.0330   16.4540   -2.9510 O.2     3  ASN3       -0.2716
     28 ND2        48.8370   14.9060   -4.1120 N.am    3  ASN3       -0.0877
     29 N          48.0910   18.5380   -1.5220 N.am    4  ALA4       -0.1963
     30 CA         47.8580   19.8850   -1.7730 C.3     4  ALA4        0.1728
     31 C          48.2810   20.0900   -3.1490 C.2     4  ALA4        0.2616
     32 O          49.1550   19.2890   -3.3670 O.2     4  ALA4       -0.2715
     33 CB         48.7910   20.5960   -0.7960 C.3     4  ALA4        0.0334
     34 N          47.9380   20.9530   -4.0320 N.am    5  PHE5       -0.1960
     35 CA         48.0930   21.4180   -5.3910 C.3     5  PHE5        0.1771
     36 C          47.5950   22.8120   -5.7340 C.2     5  PHE5        0.2619
     37 O          46.8510   23.4850   -5.1010 O.2     5  PHE5       -0.2715
     38 CB         47.3730   20.4110   -6.3460 C.3     5  PHE5        0.0574
     39 CG         45.9180   20.1360   -6.1830 C.ar    5  PHE5       -0.0200
     40 CD1        44.9240   20.7650   -6.9720 C.ar    5  PHE5       -0.0042
     41 CD2        45.5120   19.1910   -5.2830 C.ar    5  PHE5       -0.0042
     42 CE1        43.5610   20.4850   -6.9110 C.ar    5  PHE5       -0.0003
     43 CE2        44.1560   18.9000   -5.1560 C.ar    5  PHE5       -0.0003
     44 CZ         43.1690   19.4770   -5.9310 C.ar    5  PHE5       -0.0000
     45 N          48.0940   23.2160   -6.8990 N.am    6  TRP6       -0.1974
     46 CA         47.8800   24.4770   -7.6480 C.3     6  TRP6        0.1637
     47 C          46.9890   23.9400   -8.7590 C.2     6  TRP6        0.2290
     48 O          47.5540   22.9520   -9.3050 O.2     6  TRP6       -0.2864
     49 CB         49.1460   25.2450   -8.0320 C.3     6  TRP6        0.0539
     50 CG         48.8120   26.2140   -9.1480 C.2     6  TRP6       -0.0137
     51 CD1        49.0300   26.0160  -10.4110 C.2     6  TRP6        0.0907
     52 CD2        48.2080   27.5020   -8.9580 C.3     6  TRP6        0.0819
     53 NE1        48.5070   27.1620  -11.1460 N.2     6  TRP6       -0.2482
     54 CE2        48.0430   28.0840  -10.1390 C.2     6  TRP6        0.0665
     55 CE3        47.7700   28.2770   -7.8590 C.2     6  TRP6       -0.0164
     56 CZ2        47.4520   29.3390  -10.3030 C.2     6  TRP6        0.0153
     57 CZ3        47.2560   29.5650   -7.9430 C.2     6  TRP6       -0.0038
     58 CH2        47.0620   30.0800   -9.2640 C.2     6  TRP6        0.0009
     59 N          43.9690   22.3980   -0.4870 N.3     1  TYR1       -0.1241
     60 CA         44.6800   21.6490    0.5510 C.3     1  TYR1        0.1605
     61 C          43.7990   20.6730    1.2420 C.2     1  TYR1        0.2264
     62 O          42.7230   21.0960    1.6740 O.2     1  TYR1       -0.2867
     63 CB         45.1730   22.5500    1.7430 C.3     1  TYR1        0.0534
     64 CG         46.1660   23.6580    1.2570 C.ar    1  TYR1       -0.0201
     65 CD1        45.7300   24.9200    0.9530 C.ar    1  TYR1       -0.0009
     66 CD2        47.4930   23.4220    1.1470 C.ar    1  TYR1       -0.0009
     67 CE1        46.6790   25.8720    0.5690 C.ar    1  TYR1        0.0417
     68 CE2        48.4740   24.2830    0.8020 C.ar    1  TYR1        0.0417
     69 CZ         48.0120   25.5480    0.5080 C.ar    1  TYR1        0.1957
     70 OH         48.9490   26.4430    0.0410 O.3     1  TYR1       -0.2866
     71 N          49.8580   12.3730    6.6610 N.3     1  PHE1       -0.1241
     72 CA         49.9290   13.8450    6.6370 C.3     1  PHE1        0.1605
     73 C          48.8490   14.3620    7.6140 C.2     1  PHE1        0.2264
     74 O          47.8430   13.5660    7.8260 O.2     1  PHE1       -0.2867
     75 CB         49.4070   14.5460    5.3720 C.3     1  PHE1        0.0534
     76 CG         50.4450   14.3840    4.2930 C.ar    1  PHE1       -0.0203
     77 CD1        50.4980   13.4930    3.2760 C.ar    1  PHE1       -0.0042
     78 CD2        51.5000   15.2980    4.3610 C.ar    1  PHE1       -0.0042
     79 CE1        51.5080   13.3990    2.3320 C.ar    1  PHE1       -0.0003
     80 CE2        52.5390   15.2430    3.4590 C.ar    1  PHE1       -0.0003
     81 CZ         52.5550   14.3130    2.4630 C.ar    1  PHE1       -0.0000
     82 N          47.7490   19.8470    5.2150 N.3     1  LEU1       -0.1245
     83 CA         48.8700   20.4120    4.4860 C.3     1  LEU1        0.1561
     84 C          49.1670   21.8310    4.5230 C.2     1  LEU1        0.2260
     85 O          50.4060   22.0930    4.1760 O.2     1  LEU1       -0.2867
     86 CB         48.8080   19.8000    3.0150 C.3     1  LEU1        0.0270
     87 CG         49.0310   18.3390    3.2480 C.3     1  LEU1        0.0019
     88 CD2        47.7940   17.4560    3.3520 C.3     1  LEU1        0.0001
     89 CD1        49.8490   17.8380    2.0810 C.3     1  LEU1        0.0001
     90 N          56.8110   25.4460    3.5270 N.3     1  ASP1       -0.1227
     91 CA         57.4680   25.1130    2.3190 C.3     1  ASP1        0.1748
     92 C          56.4400   24.5480    1.3090 C.2     1  ASP1        0.2596
     93 O          56.7400   24.6180    0.0830 O.2     1  ASP1       -0.2718
     94 CB         58.6720   24.2050    2.5980 C.3     1  ASP1        0.0701
     95 CG         58.4710   22.9470    3.3380 C.2     1  ASP1        0.0523
     96 OD1        59.2740   21.9890    3.6010 O.co2   1  ASP1       -0.5491
     97 OD2        57.3160   22.6280    3.8470 O.co2   1  ASP1       -0.5491
     98 N          55.3200   23.8690    1.7550 N.am    2  VAL2       -0.1966
     99 CA         54.1510   23.1770    1.0090 C.3     2  VAL2        0.1727
    100 C          53.4570   24.3170    0.3730 C.2     2  VAL2        0.2616
    101 O          53.3410   24.3830   -0.8300 O.2     2  VAL2       -0.2715
    102 CB         53.2510   22.3750    1.9530 C.3     2  VAL2        0.0290
    103 CG1        51.8960   21.9600    1.3310 C.3     2  VAL2        0.0023
    104 CG2        53.8950   21.2250    2.5910 C.3     2  VAL2        0.0023
    105 N          53.0330   25.2980    1.2770 N.am    3  VAL3       -0.1977
    106 CA         52.3500   26.5030    0.8160 C.3     3  VAL3        0.1596
    107 C          53.1840   27.3160   -0.2080 C.2     3  VAL3        0.2287
    108 O          52.6520   27.7960   -1.2400 O.2     3  VAL3       -0.2864
    109 CB         51.9330   27.3400    1.9520 C.3     3  VAL3        0.0276
    110 CG1        51.4300   28.7040    1.4300 C.3     3  VAL3        0.0022
    111 CG2        50.7970   26.7630    2.7100 C.3     3  VAL3        0.0022
    112 N          55.5790   26.1350   -2.1910 N.3     1  HIS1       -0.1226
    113 CA         55.8690   25.1940   -3.2420 C.3     1  HIS1        0.1752
    114 C          54.7280   25.3330   -4.3380 C.2     1  HIS1        0.2595
    115 O          54.9200   25.3630   -5.4750 O.2     1  HIS1       -0.2718
    116 CB         56.1170   23.8250   -2.7150 C.3     1  HIS1        0.0759
    117 CG         56.1370   22.7210   -3.7310 C.ar    1  HIS1        0.0818
    118 ND1        57.1730   21.8780   -3.9620 N.ar    1  HIS1       -0.2268
    119 CD2        55.1460   22.3850   -4.5760 C.ar    1  HIS1        0.1154
    120 CE1        56.8400   21.0540   -5.0030 C.ar    1  HIS1        0.1986
    121 NE2        55.5650   21.3660   -5.3690 N.ar    1  HIS1       -0.2212
    122 N          53.5300   25.4650   -3.8120 N.am    2  GLU2       -0.1979
    123 CA         52.1670   25.5850   -4.4060 C.3     2  GLU2        0.1600
    124 C          51.9980   26.8760   -5.1130 C.2     2  GLU2        0.2287
    125 O          51.5800   26.9920   -6.2830 O.2     2  GLU2       -0.2864
    126 CB         51.1090   25.3450   -3.4040 C.3     2  GLU2        0.0356
    127 CG         50.9340   23.8300   -2.9330 C.3     2  GLU2        0.0439
    128 CD         51.1760   22.7760   -4.0160 C.2     2  GLU2        0.0504
    129 OE1        51.2050   22.5400   -5.2070 O.co2   2  GLU2       -0.5492
    130 OE2        51.4840   21.7700   -3.2810 O.co2   2  GLU2       -0.5492
    131 N          54.2150   27.2750   -8.1980 N.3     1  HIS1       -0.1241
    132 CA         53.6340   26.5590   -9.3300 C.3     1  HIS1        0.1618
    133 C          52.8530   27.6380  -10.1380 C.2     1  HIS1        0.2264
    134 O          52.8120   27.4910  -11.3270 O.2     1  HIS1       -0.2867
    135 CB         52.6850   25.3940   -9.0380 C.3     1  HIS1        0.0704
    136 CG         53.2950   24.1250   -8.6610 C.2     1  HIS1        0.0649
    137 ND1        54.3020   23.4650   -9.3630 N.2     1  HIS1       -0.2310
    138 CD2        53.0350   23.2340   -7.6890 C.3     1  HIS1        0.1683
    139 CE1        54.5640   22.2440   -8.8520 C.2     1  HIS1        0.1939
    140 NE2        53.8320   22.0980   -7.7940 N.2     1  HIS1       -0.2440
    141 N          53.7800   19.8930  -17.3850 N.3     1  TYR1       -0.1241
    142 CA         53.9750   18.9690  -16.2850 C.3     1  TYR1        0.1605
    143 C          54.3640   17.5460  -16.5670 C.2     1  TYR1        0.2264
    144 O          53.6460   16.7100  -15.9610 O.2     1  TYR1       -0.2867
    145 CB         52.6980   19.0110  -15.3820 C.3     1  TYR1        0.0534
    146 CG         53.0470   18.7950  -13.8970 C.ar    1  TYR1       -0.0201
    147 CD2        52.4500   17.7300  -13.1320 C.ar    1  TYR1       -0.0009
    148 CD1        53.9210   19.6070  -13.1540 C.ar    1  TYR1       -0.0009
    149 CE2        52.6770   17.5210  -11.8230 C.ar    1  TYR1        0.0417
    150 CE1        54.2030   19.4800  -11.7690 C.ar    1  TYR1        0.0417
    151 CZ         53.5340   18.4100  -11.1430 C.ar    1  TYR1        0.1957
    152 OH         53.6980   18.1240   -9.8150 O.3     1  TYR1       -0.2866
    153 N          58.6860   21.0920  -10.6130 N.3     1  GLU1       -0.1245
    154 CA         58.5490   20.5240   -9.2690 C.3     1  GLU1        0.1565
    155 C          59.8450   20.9450   -8.4840 C.2     1  GLU1        0.2260
    156 O          59.5200   21.2960   -7.4300 O.2     1  GLU1       -0.2867
    157 CB         58.6080   19.0170   -9.2180 C.3     1  GLU1        0.0329
    158 CG         57.3070   18.3460   -9.3960 C.3     1  GLU1        0.0437
    159 CD         56.4480   18.8940   -8.3470 C.2     1  GLU1        0.0504
    160 OE1        55.4420   19.4430   -8.4780 O.co2   1  GLU1       -0.5492
    161 OE2        56.8350   18.8200   -7.1110 O.co2   1  GLU1       -0.5492
    162 N          60.1340   23.4780   -5.0780 N.3     1  ASP1       -0.1241
    163 CA         60.7610   22.9360   -3.8670 C.3     1  ASP1        0.1616
    164 C          61.9040   23.9370   -3.6650 C.2     1  ASP1        0.2264
    165 O          62.0620   24.2140   -2.4490 O.2     1  ASP1       -0.2867
    166 CB         61.3710   21.6190   -3.8580 C.3     1  ASP1        0.0687
    167 CG         60.5460   20.3980   -3.9130 C.2     1  ASP1        0.0522
    168 OD1        60.9560   19.3560   -4.3780 O.co2   1  ASP1       -0.5491
    169 OD2        59.4680   20.5070   -3.5480 O.co2   1  ASP1       -0.5491
    170 N          61.6120   18.8490    2.4130 N.3     1  ILE1       -0.1231
    171 CA         60.2590   19.1730    2.0400 C.3     1  ILE1        0.1692
    172 C          59.1120   18.4480    2.8300 C.2     1  ILE1        0.2593
    173 O          59.0700   17.1640    2.7880 O.2     1  ILE1       -0.2718
    174 CB         60.0490   18.9700    0.4850 C.3     1  ILE1        0.0266
    175 CG1        61.2710   19.6920   -0.0590 C.3     1  ILE1        0.0019
    176 CG2        58.7480   19.5250   -0.0150 C.3     1  ILE1        0.0020
    177 CD1        61.2220   21.1880    0.0630 C.3     1  ILE1        0.0001
    178 N          58.1900   19.2780    3.3920 N.am    2  GLY2       -0.1942
    179 CA         57.0550   18.7460    4.1270 C.3     2  GLY2        0.2014
    180 C          57.2010   18.1280    5.4770 C.2     2  GLY2        0.2638
    181 O          56.2880   17.6370    6.0890 O.2     2  GLY2       -0.2714
    182 N          58.3640   18.2420    6.0320 N.am    3  GLU3       -0.1977
    183 CA         58.7000   17.7240    7.2720 C.3     3  GLU3        0.1600
    184 C          57.7440   18.0690    8.4670 C.2     3  GLU3        0.2287
    185 O          57.6100   17.1820    9.3670 O.2     3  GLU3       -0.2864
    186 CB         60.1500   18.0990    7.6920 C.3     3  GLU3        0.0356
    187 CG         60.4600   19.4580    8.2250 C.3     3  GLU3        0.0439
    188 CD         60.5580   20.3670    6.9420 C.2     3  GLU3        0.0504
    189 OE1        60.7100   19.9370    5.8670 O.co2   3  GLU3       -0.5492
    190 OE2        60.5160   21.5850    7.2270 O.co2   3  GLU3       -0.5492
    191 N          54.3350   18.6920    8.2680 N.3     1  VAL1       -0.1231
    192 CA         53.0540   18.1220    7.9980 C.3     1  VAL1        0.1692
    193 C          53.1790   16.6140    7.7330 C.2     1  VAL1        0.2592
    194 O          52.0940   16.0200    7.7370 O.2     1  VAL1       -0.2718
    195 CB         52.3000   18.7490    6.7140 C.3     1  VAL1        0.0266
    196 CG2        51.9170   20.1690    7.1080 C.3     1  VAL1        0.0020
    197 CG1        52.9760   18.7080    5.4110 C.3     1  VAL1        0.0020
    198 N          54.2750   16.0430    7.5140 N.am    2  TYR2       -0.1976
    199 CA         54.4300   14.6290    7.2630 C.3     2  TYR2        0.1639
    200 C          54.5540   13.7020    8.4450 C.2     2  TYR2        0.2290
    201 O          55.3360   14.0510    9.3410 O.2     2  TYR2       -0.2864
    202 CB         55.7120   14.5330    6.3310 C.3     2  TYR2        0.0560
    203 CG         55.8570   13.2540    5.6570 C.ar    2  TYR2       -0.0198
    204 CD1        54.8760   12.7660    4.7960 C.ar    2  TYR2       -0.0009
    205 CD2        57.0010   12.5000    5.8210 C.ar    2  TYR2       -0.0009
    206 CE1        55.0070   11.5020    4.1360 C.ar    2  TYR2        0.0417
    207 CE2        57.2020   11.2690    5.1540 C.ar    2  TYR2        0.0417
    208 CZ         56.2080   10.7960    4.2990 C.ar    2  TYR2        0.1957
    209 OH         56.5140    9.6100    3.7210 O.3     2  TYR2       -0.2866
    210 N          58.9810   14.3650    3.2570 N.3     1  LEU1       -0.1231
    211 CA         58.5650   13.8240    1.9760 C.3     1  LEU1        0.1693
    212 C          59.7760   13.5780    1.0860 C.2     1  LEU1        0.2595
    213 O          59.9370   12.4520    0.7340 O.2     1  LEU1       -0.2718
    214 CB         57.4510   14.7580    1.5090 C.3     1  LEU1        0.0284
    215 CG         56.5030   14.2230    0.3960 C.3     1  LEU1        0.0019
    216 CD2        56.1360   12.8230    0.8190 C.3     1  LEU1        0.0001
    217 CD1        55.2560   15.0430    0.2810 C.3     1  LEU1        0.0001
    218 N          60.6020   14.6070    0.8850 N.am    2  ARG2       -0.1934
    219 CA         61.7570   14.6200    0.1450 C.3     2  ARG2        0.1813
    220 C          62.8730   15.4310    0.8180 C.2     2  ARG2        0.2332
    221 O          62.5610   16.2920    1.5800 O.2     2  ARG2       -0.2860
    222 CB         61.5850   15.3930   -1.2300 C.2     2  ARG2        0.0019
    223 CG         60.6700   14.9040   -2.2480 C.2     2  ARG2        0.0178
    224 CD         60.4450   15.6450   -3.5030 C.3     2  ARG2        0.2464
    225 NE         59.5740   16.8200   -3.4550 N.pl3   2  ARG2       -0.0815
    226 CZ         58.2740   16.8920   -3.4090 C.cat   2  ARG2        0.5349
    227 NH2        57.4470   15.8220   -3.3730 N.pl3   2  ARG2        0.1354
    228 NH1        57.6380   18.1370   -3.4240 N.pl3   2  ARG2        0.1354
    229 N          53.9720    8.7760  -12.2550 N.3     1  ASP1       -0.1241
    230 CA         54.1500   10.1940  -11.8670 C.3     1  ASP1        0.1616
    231 C          54.6060   11.1490  -12.9290 C.2     1  ASP1        0.2264
    232 O          55.5200   11.9540  -12.6200 O.2     1  ASP1       -0.2867
    233 CB         55.3100   10.2820  -10.8000 C.3     1  ASP1        0.0687
    234 CG         55.5320   11.5220   -9.9930 C.2     1  ASP1        0.0522
    235 OD2        54.6920   12.3300   -9.5430 O.co2   1  ASP1       -0.5491
    236 OD1        56.6860   11.7490   -9.6770 O.co2   1  ASP1       -0.5491
    237 N          58.1940   14.0900   -9.6210 N.3     1  HIS1       -0.1241
    238 CA         58.5010   14.1850   -8.2550 C.3     1  HIS1        0.1618
    239 C          59.6830   13.2810   -7.8130 C.2     1  HIS1        0.2264
    240 O          60.0250   13.3340   -6.6600 O.2     1  HIS1       -0.2867
    241 CB         57.4110   13.9140   -7.0550 C.3     1  HIS1        0.0704
    242 CG         56.1820   14.7410   -7.3140 C.2     1  HIS1        0.0649
    243 ND1        55.3220   14.3260   -8.2240 N.2     1  HIS1       -0.2310
    244 CD2        55.6420   15.8820   -6.7660 C.3     1  HIS1        0.1683
    245 CE1        54.2740   15.1910   -8.2510 C.2     1  HIS1        0.1939
    246 NE2        54.4570   16.1190   -7.3410 N.2     1  HIS1       -0.2440
@<TRIPOS>UNITY_ATOM_ATTR
96 1
charge -1
129 1
charge -1
160 1
charge -1
168 1
charge -1
189 1
charge -1
235 1
charge -1
@<TRIPOS>BOND
     1     1     2    1
     2     2     5    1
     3     2     3    1
     4     3    13   am
     5     3     4    2
     6     5     6    1
     7     6     7   ar
     8     6     8   ar
     9     7     9   ar
    10     8    10   ar
    11     9    11   ar
    12    10    11   ar
    13    11    12    1
    14    13    14    1
    15    14    15    1
    16    14    17    1
    17    15    16    2
    18    15    21   am
    19    17    18    1
    20    18    20   am
    21    18    19    2
    22    21    22    1
    23    22    25    1
    24    22    23    1
    25    23    29   am
    26    23    24    2
    27    25    26    1
    28    26    28   am
    29    26    27    2
    30    29    30    1
    31    30    31    1
    32    30    33    1
    33    31    34   am
    34    31    32    2
    35    34    35    1
    36    35    38    1
    37    35    36    1
    38    36    45   am
    39    36    37    2
    40    38    39    1
    41    39    40   ar
    42    39    41   ar
    43    40    42   ar
    44    41    43   ar
    45    42    44   ar
    46    43    44   ar
    47    45    46    1
    48    46    47    1
    49    46    49    1
    50    47    48    2
    51    49    50    1
    52    50    51    2
    53    50    52    1
    54    51    53    1
    55    52    54    1
    56    52    55    1
    57    53    54    2
    58    54    56    1
    59    55    57    2
    60    56    58    2
    61    57    58    1
    62    59    60    1
    63    60    61    1
    64    60    63    1
    65    61    62    2
    66    63    64    1
    67    64    65   ar
    68    64    66   ar
    69    65    67   ar
    70    66    68   ar
    71    67    69   ar
    72    68    69   ar
    73    69    70    1
    74    71    72    1
    75    72    75    1
    76    72    73    1
    77    73    74    2
    78    75    76    1
    79    76    77   ar
    80    76    78   ar
    81    77    79   ar
    82    78    80   ar
    83    79    81   ar
    84    80    81   ar
    85    82    83    1
    86    83    86    1
    87    83    84    1
    88    84    85    2
    89    86    87    1
    90    87    89    1
    91    87    88    1
    92    90    91    1
    93    91    92    1
    94    91    94    1
    95    92    93    2
    96    92    98   am
    97    94    95    1
    98    95    96   ar
    99    95    97   ar
   100    98    99    1
   101    99   100    1
   102    99   102    1
   103   100   101    2
   104   100   105   am
   105   102   103    1
   106   102   104    1
   107   105   106    1
   108   106   107    1
   109   106   109    1
   110   107   108    2
   111   109   110    1
   112   109   111    1
   113   112   113    1
   114   113   114    1
   115   113   116    1
   116   114   115    2
   117   114   122   am
   118   116   117    1
   119   117   119   ar
   120   117   118   ar
   121   118   120   ar
   122   119   121   ar
   123   120   121   ar
   124   122   123    1
   125   123   124    1
   126   123   126    1
   127   124   125    2
   128   126   127    1
   129   127   128    1
   130   128   129   ar
   131   128   130   ar
   132   131   132    1
   133   132   133    1
   134   132   135    1
   135   133   134    2
   136   135   136    1
   137   136   137    2
   138   136   138    1
   139   137   139    1
   140   138   140    1
   141   139   140    2
   142   141   142    1
   143   142   143    1
   144   142   145    1
   145   143   144    2
   146   145   146    1
   147   146   148   ar
   148   146   147   ar
   149   147   149   ar
   150   148   150   ar
   151   149   151   ar
   152   150   151   ar
   153   151   152    1
   154   153   154    1
   155   154   157    1
   156   154   155    1
   157   155   156    2
   158   157   158    1
   159   158   159    1
   160   159   160   ar
   161   159   161   ar
   162   162   163    1
   163   163   166    1
   164   163   164    1
   165   164   165    2
   166   166   167    1
   167   167   168   ar
   168   167   169   ar
   169   170   171    1
   170   171   174    1
   171   171   172    1
   172   172   173    2
   173   172   178   am
   174   174   175    1
   175   174   176    1
   176   175   177    1
   177   178   179    1
   178   179   180    1
   179   180   182   am
   180   180   181    2
   181   182   183    1
   182   183   186    1
   183   183   184    1
   184   184   185    2
   185   186   187    1
   186   187   188    1
   187   188   189   ar
   188   188   190   ar
   189   191   192    1
   190   192   195    1
   191   192   193    1
   192   193   198   am
   193   193   194    2
   194   195   197    1
   195   195   196    1
   196   198   199    1
   197   199   202    1
   198   199   200    1
   199   200   201    2
   200   202   203    1
   201   203   204   ar
   202   203   205   ar
   203   204   206   ar
   204   205   207   ar
   205   206   208   ar
   206   207   208   ar
   207   208   209    1
   208   210   211    1
   209   211   212    1
   210   211   214    1
   211   212   213    2
   212   212   218   am
   213   214   215    1
   214   215   217    1
   215   215   216    1
   216   218   219    1
   217   219   222    1
   218   219   220    1
   219   220   221    2
   220   222   223    2
   221   223   224    1
   222   224   225    1
   223   225   226    2
   224   226   228    1
   225   226   227    1
   226   229   230    1
   227   230   231    1
   228   230   233    1
   229   231   232    2
   230   233   234    1
   231   234   236   ar
   232   234   235   ar
   233   237   238    1
   234   238   239    1
   235   238   241    1
   236   239   240    2
   237   241   242    1
   238   242   243    2
   239   242   244    1
   240   243   245    1
   241   244   246    1
   242   245   246    2
