@<TRIPOS>MOLECULE
./1chg/ligand.pdb
 12 12 0 0 0
SMALL
GASTEIGER

@<TRIPOS>ATOM
      1  CA        36.8030   76.8580   86.7130 C.2     1  OAC1        0.0027
      2  C         37.3070   76.9220   85.2060 C.2     1  OAC1        0.2260
      3  O         36.7220   76.6530   84.0180 O.2     1  OAC1       -0.2838
      4  CB1       37.7910   77.2600   87.8150 C.3     1  OAC1        0.0549
      5  CB2       35.4090   76.4340   86.5830 C.3     1  OAC1        0.0301
      6  CG        37.6790   77.2420   89.3730 C.ar    1  OAC1        0.0209
      7  CD1       36.4650   76.8840   90.0230 C.ar    1  OAC1       -0.0008
      8  CD2       38.8110   77.6480   90.0900 C.ar    1  OAC1        0.1920
      9  CE1       36.3300   76.8650   91.3620 C.ar    1  OAC1       -0.0001
     10  CE2       38.6610   77.6980   91.6110 C.ar    1  OAC1        0.0417
     11  CZ        37.3580   77.2820   92.1730 C.ar    1  OAC1        0.0033
     12  OH        40.1010   78.0450   89.5820 O.3     1  OAC1       -0.2869
@<TRIPOS>BOND
     1     1     4    1
     2     1     5    1
     3     1     2    2
     4     2     3    1
     5     4     6    1
     6     6     7   ar
     7     6     8   ar
     8     7     9   ar
     9     8    12    1
    10     8    10   ar
    11     9    11   ar
    12    10    11   ar
