@<TRIPOS>MOLECULE
./2pk4/ligand.pdb
 9 8 0 0 0
SMALL
GASTEIGER

@<TRIPOS>ATOM
      1  C1         0.5600   -3.2550    0.5580 C.2     1  ACA1        0.3649
      2  O1         0.7890   -4.4380    0.9010 O.co2   1  ACA1       -0.2457
      3  C2         1.4600   -2.1690    1.1740 C.3     1  ACA1        0.1141
      4  O2        -0.5960   -2.8000    0.2490 O.co2   1  ACA1       -0.2457
      5  C3         2.3820   -1.6060    0.0840 C.3     1  ACA1        0.0119
      6  C4         3.6150   -0.9410    0.7670 C.3     1  ACA1        0.0021
      7  C5         4.4500   -0.1930   -0.2350 C.3     1  ACA1        0.0205
      8  C6         5.8930    0.0170    0.1620 C.3     1  ACA1        0.1093
      9  N6         6.5910   -1.2810    0.4160 N.3     1  ACA1       -0.1314
@<TRIPOS>BOND
     1     1     2   ar
     2     1     3    1
     3     1     4   ar
     4     3     5    1
     5     5     6    1
     6     6     7    1
     7     7     8    1
     8     8     9    1
