@<TRIPOS>MOLECULE
./1pkk/protein.pdb
 172 168 0 0 0
SMALL
GASTEIGER

@<TRIPOS>ATOM
      1 N          39.8440   80.1290  -13.3130 N.3     1  ILE1       -0.1231
      2 CA         40.7710   79.3900  -14.1580 C.3     1  ILE1        0.1692
      3 C          40.5820   79.8270  -15.6020 C.2     1  ILE1        0.2592
      4 O          39.4560   79.9280  -16.0920 O.2     1  ILE1       -0.2718
      5 CB         40.5370   77.8640  -14.0330 C.3     1  ILE1        0.0266
      6 CG1        41.1190   77.3700  -12.6990 C.3     1  ILE1        0.0019
      7 CG2        41.1620   77.1310  -15.2070 C.3     1  ILE1        0.0020
      8 CD1        40.8600   75.9000  -12.4160 C.3     1  ILE1        0.0001
      9 N          41.6970   80.1000  -16.2680 N.am    2  ILE2       -0.1966
     10 CA         41.6990   80.5210  -17.6610 C.3     2  ILE2        0.1727
     11 C          42.6060   79.5770  -18.4360 C.2     2  ILE2        0.2616
     12 O          43.7820   79.4250  -18.1110 O.2     2  ILE2       -0.2715
     13 CB         42.2430   81.9610  -17.8140 C.3     2  ILE2        0.0290
     14 CG1        41.2910   82.9560  -17.1420 C.3     2  ILE2        0.0022
     15 CG2        42.4140   82.3090  -19.2870 C.3     2  ILE2        0.0023
     16 CD1        39.9430   83.0480  -17.8130 C.3     2  ILE2        0.0001
     17 N          42.0490   78.9330  -19.4520 N.am    3  TYR3       -0.1960
     18 CA         42.8170   78.0050  -20.2670 C.3     3  TYR3        0.1771
     19 C          43.7750   78.7950  -21.1510 C.2     3  TYR3        0.2620
     20 O          43.4450   79.8900  -21.6060 O.2     3  TYR3       -0.2715
     21 CB         41.8620   77.1650  -21.1110 C.3     3  TYR3        0.0574
     22 CG         41.0240   76.1950  -20.2920 C.ar    3  TYR3       -0.0198
     23 CD2        41.5920   75.0550  -19.7240 C.ar    3  TYR3       -0.0009
     24 CD1        39.6530   76.4040  -20.1140 C.ar    3  TYR3       -0.0009
     25 CE2        40.8150   74.1410  -19.0040 C.ar    3  TYR3        0.0417
     26 CE1        38.8650   75.5010  -19.4010 C.ar    3  TYR3        0.0417
     27 CZ         39.4580   74.3680  -18.8500 C.ar    3  TYR3        0.1957
     28 OH         38.6790   73.4710  -18.1650 O.3     3  TYR3       -0.2866
     29 N          44.9660   78.2550  -21.3950 N.am    4  ASP4       -0.1959
     30 CA         45.9230   78.9780  -22.2250 C.3     4  ASP4        0.1783
     31 C          46.4180   78.2020  -23.4410 C.2     4  ASP4        0.2620
     32 O          47.4510   78.5360  -24.0130 O.2     4  ASP4       -0.2715
     33 CB         47.1110   79.4350  -21.3760 C.3     4  ASP4        0.0728
     34 CG         48.0370   78.3050  -21.0170 C.2     4  ASP4        0.0526
     35 OD2        47.5440   77.2500  -20.5640 O.co2   4  ASP4       -0.5491
     36 OD1        49.2660   78.4740  -21.1820 O.co2   4  ASP4       -0.5491
     37 N          45.6810   77.1670  -23.8340 N.am    5  ASP5       -0.1973
     38 CA         46.0550   76.3860  -25.0070 C.3     5  ASP5        0.1651
     39 C          45.2820   76.9060  -26.2130 C.2     5  ASP5        0.2291
     40 O          44.2580   77.5730  -26.0640 O.2     5  ASP5       -0.2864
     41 CB         45.7590   74.8970  -24.8070 C.3     5  ASP5        0.0714
     42 CG         46.6740   74.2520  -23.7830 C.2     5  ASP5        0.0525
     43 OD1        47.8680   74.6290  -23.7200 O.co2   5  ASP5       -0.5491
     44 OD2        46.2060   73.3550  -23.0520 O.co2   5  ASP5       -0.5491
     45 N          40.8270   73.1360  -27.4720 N.3     1  TYR1       -0.1241
     46 CA         40.4570   72.1970  -26.4240 C.3     1  TYR1        0.1605
     47 C          40.4110   70.7710  -26.9390 C.2     1  TYR1        0.2264
     48 O          39.5560   70.4270  -27.7530 O.2     1  TYR1       -0.2867
     49 CB         39.0880   72.5470  -25.8510 C.3     1  TYR1        0.0534
     50 CG         39.0690   73.7960  -25.0210 C.ar    1  TYR1       -0.0201
     51 CD1        38.4340   74.9480  -25.4770 C.ar    1  TYR1       -0.0009
     52 CD2        39.6520   73.8160  -23.7560 C.ar    1  TYR1       -0.0009
     53 CE1        38.3720   76.0920  -24.6900 C.ar    1  TYR1        0.0417
     54 CE2        39.5960   74.9480  -22.9650 C.ar    1  TYR1        0.0417
     55 CZ         38.9530   76.0840  -23.4360 C.ar    1  TYR1        0.1957
     56 OH         38.8770   77.2030  -22.6390 O.3     1  TYR1       -0.2866
     57 N          45.8980   78.8170  -16.2600 N.3     1  LYS1       -0.1245
     58 CA         46.4950   79.7140  -15.2790 C.3     1  LYS1        0.1561
     59 C          45.4620   79.9790  -14.1890 C.2     1  LYS1        0.2260
     60 O          44.2820   80.1810  -14.4780 O.2     1  LYS1       -0.2867
     61 CB         46.9250   81.0280  -15.9410 C.3     1  LYS1        0.0271
     62 CG         45.8120   81.7820  -16.6410 C.3     1  LYS1        0.0035
     63 CD         46.3420   83.0560  -17.2860 C.3     1  LYS1        0.0206
     64 CE         45.2310   83.8470  -17.9620 C.3     1  LYS1        0.1093
     65 NZ         45.7490   85.0980  -18.5880 N.3     1  LYS1       -0.1314
     66 N          33.2950   87.2680  -26.0460 N.3     1  LEU1       -0.1245
     67 CA         34.4230   86.8300  -26.8520 C.3     1  LEU1        0.1561
     68 C          34.6410   87.8040  -28.0060 C.2     1  LEU1        0.2260
     69 O          33.6930   88.4230  -28.4890 O.2     1  LEU1       -0.2867
     70 CB         34.1450   85.4290  -27.3950 C.3     1  LEU1        0.0270
     71 CG         35.2640   84.7270  -28.1580 C.3     1  LEU1        0.0019
     72 CD2        36.4230   84.4520  -27.2170 C.3     1  LEU1        0.0001
     73 CD1        34.7420   83.4300  -28.7510 C.3     1  LEU1        0.0001
     74 N          40.4450   92.3930  -12.5460 N.3     1  TYR1       -0.1227
     75 CA         40.8700   91.6050  -13.6810 C.3     1  TYR1        0.1736
     76 C          39.8290   91.7440  -14.7790 C.2     1  TYR1        0.2595
     77 O          38.6370   91.8490  -14.5030 O.2     1  TYR1       -0.2718
     78 CB         40.9830   90.1410  -13.2500 C.3     1  TYR1        0.0548
     79 CG         41.8660   89.2870  -14.1230 C.ar    1  TYR1       -0.0200
     80 CD2        43.2560   89.3190  -13.9890 C.ar    1  TYR1       -0.0009
     81 CD1        41.3130   88.4330  -15.0770 C.ar    1  TYR1       -0.0009
     82 CE2        44.0720   88.5180  -14.7840 C.ar    1  TYR1        0.0417
     83 CE1        42.1200   87.6310  -15.8770 C.ar    1  TYR1        0.0417
     84 CZ         43.4980   87.6800  -15.7240 C.ar    1  TYR1        0.1957
     85 OH         44.2970   86.8940  -16.5250 O.3     1  TYR1       -0.2866
     86 N          40.2900   91.7590  -16.0210 N.am    2  VAL2       -0.1966
     87 CA         39.4030   91.8790  -17.1680 C.3     2  VAL2        0.1727
     88 C          39.6930   90.7030  -18.0820 C.2     2  VAL2        0.2616
     89 O          40.8440   90.4600  -18.4420 O.2     2  VAL2       -0.2715
     90 CB         39.6550   93.1970  -17.9300 C.3     2  VAL2        0.0290
     91 CG1        38.7490   93.2790  -19.1540 C.3     2  VAL2        0.0023
     92 CG2        39.4020   94.3820  -17.0110 C.3     2  VAL2        0.0023
     93 N          38.6560   89.9570  -18.4400 N.am    3  VAL3       -0.1963
     94 CA         38.8370   88.8070  -19.3120 C.3     3  VAL3        0.1727
     95 C          37.7670   88.7820  -20.3960 C.2     3  VAL3        0.2616
     96 O          36.6870   89.3480  -20.2300 O.2     3  VAL3       -0.2715
     97 CB         38.7800   87.4850  -18.5050 C.3     3  VAL3        0.0290
     98 CG2        37.3750   87.2610  -17.9560 C.3     3  VAL3        0.0023
     99 CG1        39.2060   86.3220  -19.3810 C.3     3  VAL3        0.0023
    100 N          38.0760   88.1470  -21.5190 N.am    4  GLU4       -0.1963
    101 CA         37.1110   88.0440  -22.6020 C.3     4  GLU4        0.1731
    102 C          36.9190   86.5730  -22.9200 C.2     4  GLU4        0.2617
    103 O          37.8500   85.7800  -22.7990 O.2     4  GLU4       -0.2715
    104 CB         37.5950   88.8030  -23.8380 C.3     4  GLU4        0.0370
    105 CG         38.8970   88.2960  -24.4290 C.3     4  GLU4        0.0440
    106 CD         39.3030   89.0860  -25.6570 C.2     4  GLU4        0.0504
    107 OE1        38.5360   89.0780  -26.6450 O.co2   4  GLU4       -0.5492
    108 OE2        40.3830   89.7140  -25.6350 O.co2   4  GLU4       -0.5492
    109 N          35.7080   86.2060  -23.3180 N.am    5  GLY5       -0.1940
    110 CA         35.4410   84.8150  -23.6230 C.3     5  GLY5        0.2014
    111 C          35.1000   84.0400  -22.3620 C.2     5  GLY5        0.2639
    112 O          34.6030   84.6120  -21.3910 O.2     5  GLY5       -0.2714
    113 N          35.3840   82.7420  -22.3580 N.am    6  GLY6       -0.1939
    114 CA         35.0530   81.9350  -21.2000 C.3     6  GLY6        0.2014
    115 C          36.0380   81.9500  -20.0500 C.2     6  GLY6        0.2639
    116 O          37.2480   82.0680  -20.2410 O.2     6  GLY6       -0.2714
    117 N          35.5040   81.8480  -18.8390 N.am    7  VAL7       -0.1963
    118 CA         36.3270   81.7900  -17.6430 C.3     7  VAL7        0.1727
    119 C          35.6600   80.8260  -16.6640 C.2     7  VAL7        0.2616
    120 O          34.4400   80.8390  -16.5040 O.2     7  VAL7       -0.2715
    121 CB         36.4850   83.1780  -16.9690 C.3     7  VAL7        0.0290
    122 CG1        35.1260   83.7430  -16.5670 C.3     7  VAL7        0.0023
    123 CG2        37.3760   83.0500  -15.7410 C.3     7  VAL7        0.0023
    124 N          36.4540   79.9700  -16.0310 N.am    8  LEU8       -0.1977
    125 CA         35.9060   79.0270  -15.0690 C.3     8  LEU8        0.1596
    126 C          35.9780   79.6170  -13.6730 C.2     8  LEU8        0.2287
    127 O          36.9950   80.1880  -13.2720 O.2     8  LEU8       -0.2864
    128 CB         36.6690   77.6970  -15.0960 C.3     8  LEU8        0.0297
    129 CG         36.4920   76.7800  -16.3130 C.3     8  LEU8        0.0022
    130 CD2        37.2800   75.4860  -16.0840 C.3     8  LEU8        0.0001
    131 CD1        35.0180   76.4620  -16.5150 C.3     8  LEU8        0.0001
    132 N          27.0710   76.2800  -18.8510 N.3     1  GLN1       -0.1245
    133 CA         26.7700   75.9980  -20.2470 C.3     1  GLN1        0.1566
    134 C          25.7700   74.8580  -20.4170 C.2     1  GLN1        0.2260
    135 O          24.9720   74.8690  -21.3510 O.2     1  GLN1       -0.2867
    136 CB         28.0670   75.6790  -21.0000 C.3     1  GLN1        0.0367
    137 CG         29.1040   76.7800  -20.8830 C.3     1  GLN1        0.0905
    138 CD         28.5140   78.1620  -21.1040 C.2     1  GLN1        0.2608
    139 OE1        28.0060   78.4720  -22.1840 O.2     1  GLN1       -0.2717
    140 NE2        28.5490   78.9910  -20.0640 N.am    1  GLN1       -0.0878
    141 N          31.8480   76.6920  -12.1490 N.3     1  LEU1       -0.1231
    142 CA         31.0450   77.6290  -12.9230 C.3     1  LEU1        0.1693
    143 C          31.6660   77.9290  -14.2850 C.2     1  LEU1        0.2592
    144 O          32.8680   78.1690  -14.3910 O.2     1  LEU1       -0.2718
    145 CB         30.8750   78.9250  -12.1210 C.3     1  LEU1        0.0284
    146 CG         30.3510   78.7360  -10.6870 C.3     1  LEU1        0.0019
    147 CD2        30.4030   80.0640   -9.9320 C.3     1  LEU1        0.0001
    148 CD1        28.9330   78.1930  -10.7220 C.3     1  LEU1        0.0001
    149 N          30.8370   77.8900  -15.3230 N.am    2  GLU2       -0.1966
    150 CA         31.2710   78.1810  -16.6890 C.3     2  GLU2        0.1731
    151 C          30.6980   79.5450  -17.0340 C.2     2  GLU2        0.2616
    152 O          29.5550   79.6580  -17.4720 O.2     2  GLU2       -0.2715
    153 CB         30.7360   77.1310  -17.6640 C.3     2  GLU2        0.0370
    154 CG         31.4040   75.7740  -17.5450 C.3     2  GLU2        0.0440
    155 CD         30.4180   74.6670  -17.2580 C.2     2  GLU2        0.0504
    156 OE1        29.2840   74.7140  -17.7940 O.co2   2  GLU2       -0.5492
    157 OE2        30.7840   73.7290  -16.5130 O.co2   2  GLU2       -0.5492
    158 N          31.5060   80.5780  -16.8450 N.am    3  ILE3       -0.1963
    159 CA         31.0670   81.9510  -17.0710 C.3     3  ILE3        0.1727
    160 C          31.3630   82.5360  -18.4510 C.2     3  ILE3        0.2616
    161 O          32.5010   82.5250  -18.9200 O.2     3  ILE3       -0.2715
    162 CB         31.6780   82.8630  -15.9910 C.3     3  ILE3        0.0290
    163 CG1        31.3440   82.2870  -14.6080 C.3     3  ILE3        0.0022
    164 CG2        31.1530   84.2850  -16.1370 C.3     3  ILE3        0.0023
    165 CD1        32.1030   82.9360  -13.4650 C.3     3  ILE3        0.0001
    166 N          30.3150   83.0510  -19.0880 N.am    4  VAL4       -0.1977
    167 CA         30.4120   83.6750  -20.4050 C.3     4  VAL4        0.1596
    168 C          29.3860   84.8050  -20.5050 C.2     4  VAL4        0.2287
    169 O          28.2550   84.6660  -20.0360 O.2     4  VAL4       -0.2864
    170 CB         30.1320   82.6580  -21.5560 C.3     4  VAL4        0.0276
    171 CG1        30.3230   83.3370  -22.9120 C.3     4  VAL4        0.0022
    172 CG2        31.0610   81.4540  -21.4420 C.3     4  VAL4        0.0022
@<TRIPOS>UNITY_ATOM_ATTR
35 1
charge -1
43 1
charge -1
107 1
charge -1
156 1
charge -1
@<TRIPOS>BOND
     1     1     2    1
     2     2     3    1
     3     2     5    1
     4     3     9   am
     5     3     4    2
     6     5     7    1
     7     5     6    1
     8     6     8    1
     9     9    10    1
    10    10    11    1
    11    10    13    1
    12    11    17   am
    13    11    12    2
    14    13    15    1
    15    13    14    1
    16    14    16    1
    17    17    18    1
    18    18    19    1
    19    18    21    1
    20    19    20    2
    21    19    29   am
    22    21    22    1
    23    22    24   ar
    24    22    23   ar
    25    23    25   ar
    26    24    26   ar
    27    25    27   ar
    28    26    27   ar
    29    27    28    1
    30    29    30    1
    31    30    31    1
    32    30    33    1
    33    31    32    2
    34    31    37   am
    35    33    34    1
    36    34    36   ar
    37    34    35   ar
    38    37    38    1
    39    38    39    1
    40    38    41    1
    41    39    40    2
    42    41    42    1
    43    42    43   ar
    44    42    44   ar
    45    45    46    1
    46    46    47    1
    47    46    49    1
    48    47    48    2
    49    49    50    1
    50    50    51   ar
    51    50    52   ar
    52    51    53   ar
    53    52    54   ar
    54    53    55   ar
    55    54    55   ar
    56    55    56    1
    57    57    58    1
    58    58    61    1
    59    58    59    1
    60    59    60    2
    61    61    62    1
    62    62    63    1
    63    63    64    1
    64    64    65    1
    65    66    67    1
    66    67    68    1
    67    67    70    1
    68    68    69    2
    69    70    71    1
    70    71    73    1
    71    71    72    1
    72    74    75    1
    73    75    76    1
    74    75    78    1
    75    76    86   am
    76    76    77    2
    77    78    79    1
    78    79    81   ar
    79    79    80   ar
    80    80    82   ar
    81    81    83   ar
    82    82    84   ar
    83    83    84   ar
    84    84    85    1
    85    86    87    1
    86    87    88    1
    87    87    90    1
    88    88    89    2
    89    88    93   am
    90    90    91    1
    91    90    92    1
    92    93    94    1
    93    94    95    1
    94    94    97    1
    95    95   100   am
    96    95    96    2
    97    97    99    1
    98    97    98    1
    99   100   101    1
   100   101   104    1
   101   101   102    1
   102   102   109   am
   103   102   103    2
   104   104   105    1
   105   105   106    1
   106   106   107   ar
   107   106   108   ar
   108   109   110    1
   109   110   111    1
   110   111   113   am
   111   111   112    2
   112   113   114    1
   113   114   115    1
   114   115   116    2
   115   115   117   am
   116   117   118    1
   117   118   121    1
   118   118   119    1
   119   119   120    2
   120   119   124   am
   121   121   122    1
   122   121   123    1
   123   124   125    1
   124   125   128    1
   125   125   126    1
   126   126   127    2
   127   128   129    1
   128   129   131    1
   129   129   130    1
   130   132   133    1
   131   133   136    1
   132   133   134    1
   133   134   135    2
   134   136   137    1
   135   137   138    1
   136   138   139    2
   137   138   140   am
   138   141   142    1
   139   142   143    1
   140   142   145    1
   141   143   149   am
   142   143   144    2
   143   145   146    1
   144   146   148    1
   145   146   147    1
   146   149   150    1
   147   150   153    1
   148   150   151    1
   149   151   152    2
   150   151   158   am
   151   153   154    1
   152   154   155    1
   153   155   156   ar
   154   155   157   ar
   155   158   159    1
   156   159   160    1
   157   159   162    1
   158   160   166   am
   159   160   161    2
   160   162   164    1
   161   162   163    1
   162   163   165    1
   163   166   167    1
   164   167   170    1
   165   167   168    1
   166   168   169    2
   167   170   171    1
   168   170   172    1
