@<TRIPOS>MOLECULE
./3i6c/protein.pdb
 173 166 0 0 0
SMALL
GASTEIGER

@<TRIPOS>ATOM
      1 N           8.2450    0.7370   19.9100 N.3     1  HIS1       -0.1241
      2 CA          9.6510    0.7270   20.2370 C.3     1  HIS1        0.1621
      3 C          10.3600   -0.3230   19.3770 C.2     1  HIS1        0.2264
      4 O           9.7430   -1.1840   18.7600 O.2     1  HIS1       -0.2867
      5 CB          9.9520    0.5040   21.7180 C.3     1  HIS1        0.0745
      6 CG          9.7770   -0.9200   22.1780 C.ar    1  HIS1        0.0817
      7 ND1        10.6730   -1.4520   23.0680 N.ar    1  HIS1       -0.2268
      8 CD2         8.8460   -1.8550   21.8710 C.ar    1  HIS1        0.1154
      9 CE1        10.2930   -2.6910   23.3060 C.ar    1  HIS1        0.1986
     10 NE2         9.1910   -2.9890   22.6150 N.ar    1  HIS1       -0.2212
     11 N          13.5900   -2.7800   20.2140 N.3     1  LEU1       -0.1245
     12 CA         14.4920   -3.2930   21.2400 C.3     1  LEU1        0.1561
     13 C          15.6630   -4.0220   20.5930 C.2     1  LEU1        0.2260
     14 O          15.4500   -4.8910   19.7320 O.2     1  LEU1       -0.2867
     15 CB         13.7170   -4.2560   22.1480 C.3     1  LEU1        0.0270
     16 CG         14.5710   -5.0270   23.1870 C.3     1  LEU1        0.0019
     17 CD2        15.2320   -4.1020   24.1880 C.3     1  LEU1        0.0001
     18 CD1        13.6530   -6.0100   23.9250 C.3     1  LEU1        0.0001
     19 N          18.4620   -6.4360   22.0890 N.3     1  LYS1       -0.1245
     20 CA         19.0160   -7.1390   23.2440 C.3     1  LYS1        0.1561
     21 C          20.5080   -7.3740   23.0700 C.2     1  LYS1        0.2260
     22 O          21.0600   -7.2530   21.9660 O.2     1  LYS1       -0.2867
     23 CB         18.3210   -8.5010   23.4150 C.3     1  LYS1        0.0271
     24 CG         16.8840   -8.3300   23.8940 C.3     1  LYS1        0.0035
     25 CD         16.2780   -9.6840   24.2470 C.3     1  LYS1        0.0206
     26 CE         14.8370   -9.5340   24.6830 C.3     1  LYS1        0.1093
     27 NZ         14.2950  -10.7990   25.2440 N.3     1  LYS1       -0.1314
     28 N          21.5420   -9.0770   28.6400 N.3     1  SER1       -0.1202
     29 CA         20.1620   -8.7050   28.8710 C.3     1  SER1        0.2020
     30 C          19.4930   -9.6400   29.8570 C.2     1  SER1        0.2619
     31 O          19.9710  -10.7750   30.0090 O.2     1  SER1       -0.2717
     32 CB         19.3970   -8.7700   27.5170 C.3     1  SER1        0.2103
     33 OG         19.7990   -7.6830   26.6850 O.3     1  SER1       -0.2182
     34 N          18.3760   -9.1900   30.4340 N.am    2  UNK2       -0.1965
     35 C          17.6880  -10.0550   31.4020 C.3     2  UNK2        0.1728
     36 C          17.3100  -11.3910   30.8070 C.2     2  UNK2        0.2619
     37 O          17.3930  -12.4130   31.5000 O.2     2  UNK2       -0.2715
     38 C          16.4920   -9.2740   31.9240 C.3     2  UNK2        0.0311
     39 C          15.5700   -9.9070   32.9430 C.3     2  UNK2        0.0023
     40 C          14.4760   -8.8840   33.2280 C.3     2  UNK2        0.0001
     41 N          16.8570  -11.4090   29.5630 N.am    3  UNK3       -0.1932
     42 C          16.3270  -12.5980   28.8790 C.3     3  UNK3        0.1812
     43 C          16.9940  -12.6130   27.5010 C.2     3  UNK3        0.2332
     44 O          16.4270  -12.1010   26.5380 O.2     3  UNK3       -0.2860
     45 C          14.8100  -12.6120   28.6690 C.2     3  UNK3       -0.0016
     46 C          13.8900  -13.0010   29.7960 C.2     3  UNK3       -0.0282
     47 C          12.4310  -12.6070   29.6300 C.3     3  UNK3        0.0304
     48 N          17.2900  -13.9890   24.7890 N.3     1  SER1       -0.1217
     49 CA         16.7630  -14.7640   23.6670 C.3     1  SER1        0.1889
     50 CB         15.6140  -13.9450   23.1080 C.2     1  SER1        0.2288
     51 OG         15.0800  -13.0610   23.8110 O.2     1  SER1       -0.2866
     52 C          16.2800  -16.1380   24.1100 C.3     1  SER1        0.2089
     53 O          15.2110  -16.0530   25.0270 O.3     1  SER1       -0.2183
     54 N          12.4050  -13.8060   19.6720 N.3     1  TRP1       -0.1241
     55 CA         11.8440  -14.4920   18.5000 C.3     1  TRP1        0.1602
     56 C          12.8400  -14.4960   17.3310 C.2     1  TRP1        0.2264
     57 O          12.7130  -15.3380   16.4500 O.2     1  TRP1       -0.2867
     58 CB         10.5200  -13.8130   18.1170 C.3     1  TRP1        0.0510
     59 CG         10.7170  -12.4080   17.5830 C.2     1  TRP1       -0.0168
     60 CD1        10.6830  -11.2580   18.3120 C.3     1  TRP1        0.1477
     61 CD2        10.9610  -12.0340   16.2170 C.ar    1  TRP1        0.0113
     62 NE1        10.8950  -10.1940   17.4810 N.2     1  TRP1       -0.2659
     63 CE2        11.0700  -10.6260   16.1890 C.ar    1  TRP1        0.0758
     64 CE3        11.1020  -12.6910   14.9870 C.ar    1  TRP1        0.0009
     65 CZ2        11.3160   -9.9030   15.0200 C.ar    1  TRP1        0.0187
     66 CZ3        11.3410  -11.9690   13.8380 C.ar    1  TRP1        0.0001
     67 CH2        11.4520  -10.5540   13.8180 C.ar    1  TRP1        0.0015
     68 N          13.8960   -7.0460   18.9170 N.3     1  ASP1       -0.1227
     69 CA         13.9320   -8.2910   19.7050 C.3     1  ASP1        0.1748
     70 C          12.7240   -8.4260   20.5990 C.2     1  ASP1        0.2596
     71 O          12.5710   -9.4480   21.2760 O.2     1  ASP1       -0.2718
     72 CB         15.2120   -8.3090   20.5520 C.3     1  ASP1        0.0701
     73 CG         16.4220   -8.7510   19.7620 C.2     1  ASP1        0.0523
     74 OD1        16.3390   -9.8040   19.0720 O.co2   1  ASP1       -0.5491
     75 OD2        17.4980   -8.0790   19.8540 O.co2   1  ASP1       -0.5491
     76 N          11.8340   -7.4400   20.6660 N.am    2  CYS2       -0.1956
     77 CA         10.5990   -7.5860   21.4420 C.3     2  CYS2        0.1843
     78 C           9.5170   -8.2560   20.6120 C.2     2  CYS2        0.2626
     79 O           9.4370   -8.0230   19.3970 O.2     2  CYS2       -0.2714
     80 CB         10.1280   -6.1890   21.8890 C.3     2  CYS2        0.0997
     81 SG          8.6430   -6.1960   22.9000 S.3     2  CYS2       -0.0797
     82 N           8.6920   -9.0710   21.2280 N.am    3  SER3       -0.1936
     83 CA          7.5810   -9.6950   20.5120 C.3     3  SER3        0.2055
     84 C           6.6150   -8.6700   19.9340 C.2     3  SER3        0.2643
     85 O           5.8750   -9.0320   19.0400 O.2     3  SER3       -0.2714
     86 CB          6.8070  -10.6290   21.4530 C.3     3  SER3        0.2130
     87 OG          6.1660   -9.8700   22.4680 O.3     3  SER3       -0.2179
     88 N           6.6400   -7.4120   20.4130 N.am    4  SER4       -0.1949
     89 CA          5.8640   -6.3550   19.7850 C.3     4  SER4        0.1924
     90 CB          6.2820   -6.0930   18.3380 C.2     4  SER4        0.2314
     91 OG          5.5470   -5.3610   17.6330 O.2     4  SER4       -0.2863
     92 C           5.8900   -5.0460   20.5950 C.3     4  SER4        0.2116
     93 O           7.2390   -4.5960   20.7050 O.3     4  SER4       -0.2180
     94 N           3.3520   -1.0180   21.4340 N.3     1  LEU1       -0.1245
     95 CA          3.1140   -1.5490   22.7780 C.3     1  LEU1        0.1561
     96 C           1.7350   -1.2340   23.2790 C.2     1  LEU1        0.2260
     97 O           1.3460   -1.7070   24.3400 O.2     1  LEU1       -0.2867
     98 CB          4.1560   -0.9960   23.7540 C.3     1  LEU1        0.0270
     99 CG          5.5690   -1.4540   23.5020 C.3     1  LEU1        0.0019
    100 CD2         6.5620   -0.6060   24.3330 C.3     1  LEU1        0.0001
    101 CD1         5.6550   -2.9350   23.8610 C.3     1  LEU1        0.0001
    102 N           4.0970    0.7310   35.2440 N.3     1  GLN1       -0.1231
    103 CA          3.8870   -0.5220   34.5150 C.3     1  GLN1        0.1698
    104 C           5.1720   -0.9990   33.8720 C.2     1  GLN1        0.2592
    105 O           5.5960   -2.1340   34.1040 O.2     1  GLN1       -0.2718
    106 CB          2.7510   -0.3580   33.4630 C.3     1  GLN1        0.0381
    107 CG          1.5690    0.4510   34.0400 C.3     1  GLN1        0.0905
    108 CD          0.9880   -0.1540   35.3060 C.2     1  GLN1        0.2608
    109 OE1         0.8320   -1.3690   35.4270 O.2     1  GLN1       -0.2717
    110 NE2         0.6470    0.6770   36.2880 N.am    1  GLN1       -0.0878
    111 N           5.8040   -0.1840   33.0420 N.am    2  MET2       -0.1965
    112 CA          6.9820   -0.5490   32.2910 C.3     2  MET2        0.1736
    113 C           8.2020   -0.3430   33.1840 C.2     2  MET2        0.2616
    114 O           8.0790    0.2770   34.2520 O.2     2  MET2       -0.2715
    115 CB          7.1380    0.3610   31.0660 C.3     2  MET2        0.0427
    116 CG          5.9140    0.2990   30.1580 C.3     2  MET2        0.0599
    117 SD          5.8420   -1.3390   29.3700 S.3     2  MET2       -0.1393
    118 CE          4.5550   -1.0400   28.1500 C.3     2  MET2        0.0692
    119 N           9.3580   -0.8090   32.7590 N.am    3  GLN3       -0.1977
    120 CA         10.5650   -0.5020   33.5020 C.3     3  GLN3        0.1601
    121 C          10.7420    1.0050   33.6110 C.2     3  GLN3        0.2287
    122 O          10.4520    1.7140   32.6380 O.2     3  GLN3       -0.2864
    123 CB         11.7900   -1.1400   32.8040 C.3     3  GLN3        0.0394
    124 CG         11.7430   -2.6780   33.0070 C.3     3  GLN3        0.0908
    125 CD         12.9480   -3.4070   32.4770 C.2     3  GLN3        0.2608
    126 OE1        14.1150   -2.9780   32.6600 O.2     3  GLN3       -0.2717
    127 NE2        12.7610   -4.5580   31.7990 N.am    3  GLN3       -0.0878
    128 N          12.3120    3.1620   30.7920 N.3     1  PHE1       -0.1241
    129 CA         11.4480    3.1750   29.6050 C.3     1  PHE1        0.1605
    130 C          10.2850    4.1240   29.8080 C.2     1  PHE1        0.2264
    131 O           9.8780    4.9050   28.9250 O.2     1  PHE1       -0.2867
    132 CB         10.9610    1.7450   29.3470 C.3     1  PHE1        0.0534
    133 CG         10.2560    1.6000   28.0010 C.ar    1  PHE1       -0.0203
    134 CD2         8.9170    1.8970   27.8460 C.ar    1  PHE1       -0.0042
    135 CD1        10.9870    1.1820   26.8780 C.ar    1  PHE1       -0.0042
    136 CE2         8.2700    1.7910   26.6270 C.ar    1  PHE1       -0.0003
    137 CE1        10.3490    1.0520   25.6760 C.ar    1  PHE1       -0.0003
    138 CZ          9.0190    1.3630   25.5560 C.ar    1  PHE1       -0.0000
    139 N          17.3300   -0.3920   29.4890 N.3     1  THR1       -0.1203
    140 CA         16.6130   -1.1150   30.5220 C.3     1  THR1        0.1994
    141 C          17.3090   -2.4370   30.7740 C.2     1  THR1        0.2618
    142 O          18.2110   -2.8670   30.0630 O.2     1  THR1       -0.2717
    143 CB         15.1430   -1.4160   30.1510 C.3     1  THR1        0.1784
    144 OG1        15.1140   -2.3880   29.1060 O.3     1  THR1       -0.2211
    145 CG2        14.4170   -0.1940   29.6320 C.3     1  THR1        0.0376
    146 N          16.8340   -3.1600   31.7800 N.am    2  ASP2       -0.1961
    147 CA         17.3430   -4.5190   31.9600 C.3     2  ASP2        0.1783
    148 C          17.0810   -5.4040   30.7570 C.2     2  ASP2        0.2621
    149 O          17.7900   -6.3830   30.5580 O.2     2  ASP2       -0.2715
    150 CB         16.7210   -5.1820   33.2110 C.3     2  ASP2        0.0728
    151 CG         17.1960   -4.4840   34.4740 C.2     2  ASP2        0.0526
    152 OD1        18.1710   -3.7140   34.4540 O.co2   2  ASP2       -0.5491
    153 OD2        16.5300   -4.7700   35.4840 O.co2   2  ASP2       -0.5491
    154 N          16.0750   -5.0830   29.9520 N.am    3  SER3       -0.1936
    155 CA         15.8150   -5.9020   28.7570 C.3     3  SER3        0.2055
    156 C          16.8060   -5.7090   27.6230 C.2     3  SER3        0.2643
    157 O          16.9840   -6.6310   26.8240 O.2     3  SER3       -0.2714
    158 CB         14.4260   -5.5580   28.2230 C.3     3  SER3        0.2130
    159 OG         13.4370   -5.8840   29.1850 O.3     3  SER3       -0.2179
    160 N          17.4260   -4.5400   27.5430 N.am    4  GLY4       -0.1954
    161 CA         18.3050   -4.2070   26.4470 C.3     4  GLY4        0.1869
    162 C          18.2620   -2.7180   26.1510 C.2     4  GLY4        0.2309
    163 O          18.0370   -1.9010   27.0530 O.2     4  GLY4       -0.2863
    164 N          16.6850    0.4170   23.7760 N.3     1  HIS1       -0.1241
    165 CA         15.4940    0.6900   22.9910 C.3     1  HIS1        0.1618
    166 C          15.6200    2.0250   22.2660 C.2     1  HIS1        0.2264
    167 O          16.3110    2.9140   22.7600 O.2     1  HIS1       -0.2867
    168 CB         14.2580    0.8120   23.8840 C.3     1  HIS1        0.0704
    169 CG         14.0170   -0.2590   24.8930 C.2     1  HIS1        0.0649
    170 ND1        12.9420   -1.1190   24.8220 N.2     1  HIS1       -0.2310
    171 CD2        14.6970   -0.5610   26.0340 C.3     1  HIS1        0.1683
    172 CE1        12.9800   -1.9290   25.8940 C.2     1  HIS1        0.1939
    173 NE2        14.0370   -1.6150   26.6320 N.2     1  HIS1       -0.2440
@<TRIPOS>UNITY_ATOM_ATTR
74 1
charge -1
152 1
charge -1
@<TRIPOS>BOND
     1     1     2    1
     2     2     3    1
     3     2     5    1
     4     3     4    2
     5     5     6    1
     6     6     8   ar
     7     6     7   ar
     8     7     9   ar
     9     8    10   ar
    10     9    10   ar
    11    11    12    1
    12    12    13    1
    13    12    15    1
    14    13    14    2
    15    15    16    1
    16    16    18    1
    17    16    17    1
    18    19    20    1
    19    20    21    1
    20    20    23    1
    21    21    22    2
    22    23    24    1
    23    24    25    1
    24    25    26    1
    25    26    27    1
    26    28    29    1
    27    29    32    1
    28    29    30    1
    29    30    31    2
    30    30    34   am
    31    32    33    1
    32    34    35    1
    33    35    36    1
    34    35    38    1
    35    36    41   am
    36    36    37    2
    37    38    39    1
    38    39    40    1
    39    41    42    1
    40    42    43    1
    41    42    45    1
    42    43    44    2
    43    45    46    2
    44    46    47    1
    45    48    49    1
    46    49    50    1
    47    49    52    1
    48    50    51    2
    49    52    53    1
    50    54    55    1
    51    55    56    1
    52    55    58    1
    53    56    57    2
    54    58    59    1
    55    59    61    2
    56    59    60    1
    57    60    62    1
    58    61    64   ar
    59    61    63   ar
    60    62    63    2
    61    63    65   ar
    62    64    66   ar
    63    65    67   ar
    64    66    67   ar
    65    68    69    1
    66    69    72    1
    67    69    70    1
    68    70    76   am
    69    70    71    2
    70    72    73    1
    71    73    74   ar
    72    73    75   ar
    73    76    77    1
    74    77    78    1
    75    77    80    1
    76    78    79    2
    77    78    82   am
    78    80    81    1
    79    82    83    1
    80    83    84    1
    81    83    86    1
    82    84    85    2
    83    84    88   am
    84    86    87    1
    85    88    89    1
    86    89    90    1
    87    89    92    1
    88    90    91    2
    89    92    93    1
    90    94    95    1
    91    95    96    1
    92    95    98    1
    93    96    97    2
    94    98    99    1
    95    99   101    1
    96    99   100    1
    97   102   103    1
    98   103   106    1
    99   103   104    1
   100   104   111   am
   101   104   105    2
   102   106   107    1
   103   107   108    1
   104   108   109    2
   105   108   110   am
   106   111   112    1
   107   112   115    1
   108   112   113    1
   109   113   119   am
   110   113   114    2
   111   115   116    1
   112   116   117    1
   113   117   118    1
   114   119   120    1
   115   120   123    1
   116   120   121    1
   117   121   122    2
   118   123   124    1
   119   124   125    1
   120   125   127   am
   121   125   126    2
   122   128   129    1
   123   129   132    1
   124   129   130    1
   125   130   131    2
   126   132   133    1
   127   133   135   ar
   128   133   134   ar
   129   134   136   ar
   130   135   137   ar
   131   136   138   ar
   132   137   138   ar
   133   139   140    1
   134   140   143    1
   135   140   141    1
   136   141   142    2
   137   141   146   am
   138   143   144    1
   139   143   145    1
   140   146   147    1
   141   147   148    1
   142   147   150    1
   143   148   154   am
   144   148   149    2
   145   150   151    1
   146   151   152   ar
   147   151   153   ar
   148   154   155    1
   149   155   156    1
   150   155   158    1
   151   156   157    2
   152   156   160   am
   153   158   159    1
   154   160   161    1
   155   161   162    1
   156   162   163    2
   157   164   165    1
   158   165   166    1
   159   165   168    1
   160   166   167    2
   161   168   169    1
   162   169   170    2
   163   169   171    1
   164   170   172    1
   165   171   173    1
   166   172   173    2
