@<TRIPOS>MOLECULE
./3ldk/protein.pdb
 232 233 0 0 0
SMALL
GASTEIGER

@<TRIPOS>ATOM
      1 N          72.3700    0.3370   56.4240 N.3     1  TYR1       -0.1227
      2 CA         72.1680   -0.8700   55.6310 C.3     1  TYR1        0.1736
      3 C          70.9320   -1.6370   56.0900 C.2     1  TYR1        0.2596
      4 O          70.6390   -1.7040   57.2840 O.2     1  TYR1       -0.2718
      5 CB         73.4020   -1.7720   55.7050 C.3     1  TYR1        0.0548
      6 CG         73.5250   -2.5360   57.0040 C.ar    1  TYR1       -0.0200
      7 CD1        73.0350   -3.8300   57.1200 C.ar    1  TYR1       -0.0009
      8 CD2        74.1320   -1.9630   58.1140 C.ar    1  TYR1       -0.0009
      9 CE1        73.1450   -4.5320   58.3060 C.ar    1  TYR1        0.0417
     10 CE2        74.2460   -2.6580   59.3040 C.ar    1  TYR1        0.0417
     11 CZ         73.7510   -3.9410   59.3940 C.ar    1  TYR1        0.1957
     12 OH         73.8630   -4.6370   60.5760 O.3     1  TYR1       -0.2866
     13 N          70.2120   -2.2130   55.1340 N.am    2  THR2       -0.1953
     14 CA         69.0260   -2.9760   55.4330 C.3     2  THR2        0.1897
     15 C          69.5520   -4.3740   55.7220 C.2     2  THR2        0.2313
     16 O          70.2250   -4.9580   54.8860 O.2     2  THR2       -0.2863
     17 CB         68.0810   -3.0190   54.2110 C.3     2  THR2        0.1794
     18 OG1        67.6640   -1.6850   53.8850 O.3     2  THR2       -0.2208
     19 CG2        66.8490   -3.8840   54.5060 C.3     2  THR2        0.0378
     20 N          69.5700   -8.0070   55.5430 N.3     1  PRO1       -0.2116
     21 CA         68.9400   -8.9990   54.6630 C.3     1  PRO1        0.1372
     22 C          68.0990  -10.0310   55.4010 C.2     1  PRO1        0.2244
     23 O          67.0040  -10.3820   54.9650 O.2     1  PRO1       -0.2868
     24 CB         70.1300   -9.6460   53.9530 C.3     1  PRO1        0.0268
     25 CG         71.1730   -8.5650   53.9730 C.3     1  PRO1        0.0207
     26 CD         71.0320   -8.0160   55.3660 C.3     1  PRO1        0.0892
     27 N          78.4190   -0.0910   54.1750 N.3     1  VAL1       -0.1231
     28 CA         78.1650   -1.5130   54.3390 C.3     1  VAL1        0.1692
     29 C          77.6670   -2.3000   53.1250 C.2     1  VAL1        0.2592
     30 O          76.7940   -1.8390   52.3930 O.2     1  VAL1       -0.2718
     31 CB         77.1330   -1.7240   55.4680 C.3     1  VAL1        0.0266
     32 CG1        76.8730   -3.2130   55.6790 C.3     1  VAL1        0.0020
     33 CG2        77.6240   -1.0740   56.7410 C.3     1  VAL1        0.0020
     34 N          78.2290   -3.4920   52.9270 N.am    2  ILE2       -0.1966
     35 CA         77.7900   -4.3880   51.8540 C.3     2  ILE2        0.1712
     36 C          76.9270   -5.3800   52.6290 C.2     2  ILE2        0.2458
     37 O          77.4330   -6.0910   53.4990 O.2     2  ILE2       -0.2730
     38 CB         78.9680   -5.1490   51.1880 C.3     2  ILE2        0.0289
     39 CG1        79.8620   -4.1670   50.4250 C.3     2  ILE2        0.0022
     40 CG2        78.4280   -6.2100   50.2420 C.3     2  ILE2        0.0023
     41 CD1        81.0240   -4.7990   49.7080 C.3     2  ILE2        0.0001
     42 N          75.6070   -5.4170   52.3570 N.am    3  PRO3       -0.2716
     43 CA         74.7040   -6.3380   53.0680 C.3     3  PRO3        0.1536
     44 C          75.1390   -7.8110   53.0850 C.2     3  PRO3        0.2598
     45 O          75.1330   -8.4520   54.1370 O.2     3  PRO3       -0.2715
     46 CB         73.3580   -6.1200   52.3640 C.3     3  PRO3        0.0310
     47 CG         73.4130   -4.6730   52.0000 C.3     3  PRO3        0.0237
     48 CD         74.8470   -4.5360   51.4540 C.3     3  PRO3        0.0939
     49 N          75.5080   -8.3430   51.9240 N.am    4  VAL4       -0.1978
     50 CA         75.9640   -9.7290   51.8320 C.3     4  VAL4        0.1596
     51 C          77.4460   -9.6990   51.4440 C.2     4  VAL4        0.2287
     52 O          77.7860   -9.6290   50.2640 O.2     4  VAL4       -0.2864
     53 CB         75.1600  -10.5040   50.7710 C.3     4  VAL4        0.0276
     54 CG1        75.5780  -11.9660   50.7660 C.3     4  VAL4        0.0022
     55 CG2        73.6700  -10.3840   51.0640 C.3     4  VAL4        0.0022
     56 N          82.1960    4.6660   49.9370 N.3     1  PHE1       -0.1227
     57 CA         80.7610    4.4380   49.7520 C.3     1  PHE1        0.1736
     58 C          80.6100    3.3430   48.7010 C.2     1  PHE1        0.2595
     59 O          81.1250    3.4890   47.5920 O.2     1  PHE1       -0.2718
     60 CB         80.0820    5.7140   49.2520 C.3     1  PHE1        0.0547
     61 CG         78.5740    5.6300   49.2180 C.ar    1  PHE1       -0.0202
     62 CD2        77.8260    5.8300   50.3720 C.ar    1  PHE1       -0.0042
     63 CD1        77.9040    5.3560   48.0330 C.ar    1  PHE1       -0.0042
     64 CE2        76.4220    5.7620   50.3390 C.ar    1  PHE1       -0.0003
     65 CE1        76.5000    5.2860   47.9950 C.ar    1  PHE1       -0.0003
     66 CZ         75.7680    5.4910   49.1450 C.ar    1  PHE1       -0.0000
     67 N          79.9150    2.2570   49.0490 N.am    2  VAL2       -0.1966
     68 CA         79.7300    1.1380   48.1290 C.3     2  VAL2        0.1727
     69 C          78.4100    1.1580   47.3750 C.2     2  VAL2        0.2616
     70 O          77.3610    1.5020   47.9300 O.2     2  VAL2       -0.2715
     71 CB         79.8700   -0.2330   48.8560 C.3     2  VAL2        0.0290
     72 CG1        81.2650   -0.3450   49.4720 C.3     2  VAL2        0.0023
     73 CG2        78.7870   -0.4000   49.9090 C.3     2  VAL2        0.0023
     74 N          78.4670    0.7860   46.0990 N.am    3  PHE3       -0.1960
     75 CA         77.2730    0.7770   45.2750 C.3     3  PHE3        0.1771
     76 C          77.3970   -0.1580   44.0700 C.2     3  PHE3        0.2619
     77 O          78.4930   -0.6160   43.7380 O.2     3  PHE3       -0.2715
     78 CB         76.9800    2.2080   44.8060 C.3     3  PHE3        0.0574
     79 CG         78.0400    2.7910   43.8930 C.ar    3  PHE3       -0.0200
     80 CD1        77.9100    2.7040   42.5050 C.ar    3  PHE3       -0.0042
     81 CD2        79.1530    3.4480   44.4210 C.ar    3  PHE3       -0.0042
     82 CE1        78.8670    3.2640   41.6590 C.ar    3  PHE3       -0.0003
     83 CE2        80.1150    4.0120   43.5830 C.ar    3  PHE3       -0.0003
     84 CZ         79.9710    3.9210   42.1970 C.ar    3  PHE3       -0.0000
     85 N          76.2640   -0.4500   43.4340 N.am    4  ARG4       -0.1963
     86 CA         76.2420   -1.2920   42.2390 C.3     4  ARG4        0.1729
     87 C          75.6860   -0.4370   41.1140 C.2     4  ARG4        0.2616
     88 O          74.8800    0.4650   41.3590 O.2     4  ARG4       -0.2715
     89 CB         75.3820   -2.5330   42.4660 C.3     4  ARG4        0.0348
     90 CG         76.1380   -3.6350   43.2050 C.3     4  ARG4        0.0492
     91 CD         75.2030   -4.6490   43.8090 C.3     4  ARG4        0.2205
     92 NE         75.8780   -5.9160   44.0530 N.pl3   4  ARG4       -0.0865
     93 CZ         75.3560   -6.9280   44.7410 C.cat   4  ARG4        0.5346
     94 NH2        74.1430   -6.8250   45.2660 N.pl3   4  ARG4        0.1354
     95 NH1        76.0510   -8.0490   44.8960 N.pl3   4  ARG4        0.1354
     96 N          76.1280   -0.7010   39.8860 N.am    5  SER5       -0.1950
     97 CA         75.6980    0.0910   38.7400 C.3     5  SER5        0.1924
     98 CB         75.6650   -0.6870   37.4320 C.2     5  SER5        0.2314
     99 OG         76.6900   -1.1750   36.9610 O.2     5  SER5       -0.2863
    100 C          76.6260    1.2990   38.5820 C.3     5  SER5        0.2116
    101 O          76.4480    1.9210   37.3210 O.3     5  SER5       -0.2180
    102 N          71.4680   -6.5720   32.4070 N.3     1  TRP1       -0.1241
    103 CA         72.1310   -6.5210   33.7090 C.3     1  TRP1        0.1602
    104 C          71.3230   -7.1500   34.8550 C.2     1  TRP1        0.2264
    105 O          70.0950   -7.0830   34.8730 O.2     1  TRP1       -0.2867
    106 CB         72.4540   -5.0610   34.0370 C.3     1  TRP1        0.0513
    107 CG         73.3100   -4.8640   35.2380 C.2     1  TRP1       -0.0140
    108 CD1        74.6690   -5.0110   35.3190 C.2     1  TRP1        0.0907
    109 CD2        72.8720   -4.4550   36.5350 C.3     1  TRP1        0.0819
    110 NE1        75.1030   -4.7100   36.5860 N.2     1  TRP1       -0.2482
    111 CE2        74.0220   -4.3650   37.3540 C.2     1  TRP1        0.0665
    112 CE3        71.6180   -4.1500   37.0850 C.2     1  TRP1       -0.0164
    113 CZ2        73.9550   -3.9840   38.6960 C.2     1  TRP1        0.0153
    114 CZ3        71.5500   -3.7680   38.4200 C.2     1  TRP1       -0.0038
    115 CH2        72.7150   -3.6880   39.2110 C.2     1  TRP1        0.0009
    116 N          71.3840   -7.2360   39.0690 N.3     1  GLU1       -0.1245
    117 CA         71.8660   -6.7100   40.3390 C.3     1  GLU1        0.1565
    118 C          72.4490   -7.7200   41.3390 C.2     1  GLU1        0.2260
    119 O          73.4740   -7.4520   41.9630 O.2     1  GLU1       -0.2867
    120 CB         70.7140   -5.9250   40.9830 C.3     1  GLU1        0.0329
    121 CG         71.1040   -4.9230   42.0510 C.3     1  GLU1        0.0437
    122 CD         71.4580   -5.5820   43.3580 C.2     1  GLU1        0.0504
    123 OE2        70.6240   -6.3580   43.8750 O.co2   1  GLU1       -0.5492
    124 OE1        72.5670   -5.3230   43.8700 O.co2   1  GLU1       -0.5492
    125 N          80.7860   -4.8010   43.2910 N.3     1  TRP1       -0.1241
    126 CA         80.6200   -3.5550   44.0320 C.3     1  TRP1        0.1602
    127 C          81.6300   -2.4730   43.6740 C.2     1  TRP1        0.2264
    128 O          82.8050   -2.7540   43.4310 O.2     1  TRP1       -0.2867
    129 CB         80.7000   -3.8180   45.5310 C.3     1  TRP1        0.0513
    130 CG         79.5270   -4.5680   46.0600 C.2     1  TRP1       -0.0140
    131 CD1        79.3850   -5.9250   46.1470 C.2     1  TRP1        0.0907
    132 CD2        78.3280   -4.0030   46.5930 C.3     1  TRP1        0.0819
    133 NE1        78.1750   -6.2390   46.7090 N.2     1  TRP1       -0.2482
    134 CE2        77.5020   -5.0790   46.9940 C.2     1  TRP1        0.0665
    135 CE3        77.8690   -2.6880   46.7710 C.2     1  TRP1       -0.0164
    136 CZ2        76.2390   -4.8820   47.5680 C.2     1  TRP1        0.0153
    137 CZ3        76.6180   -2.4880   47.3380 C.2     1  TRP1       -0.0038
    138 CH2        75.8150   -3.5840   47.7320 C.2     1  TRP1        0.0009
    139 N          76.8660    7.8020   45.8780 N.3     1  VAL1       -0.1245
    140 CA         76.5170    7.5510   44.4830 C.3     1  VAL1        0.1561
    141 C          75.1290    6.9170   44.4010 C.2     1  VAL1        0.2260
    142 O          74.9080    5.8220   44.9120 O.2     1  VAL1       -0.2867
    143 CB         77.5560    6.6360   43.8190 C.3     1  VAL1        0.0252
    144 CG1        77.2530    6.4880   42.3250 C.3     1  VAL1        0.0019
    145 CG2        78.9540    7.2130   44.0330 C.3     1  VAL1        0.0019
    146 N          71.2820    6.2480   41.9950 N.3     1  PHE1       -0.1241
    147 CA         70.7300    5.9850   40.6710 C.3     1  PHE1        0.1605
    148 C          69.2330    6.1610   40.8380 C.2     1  PHE1        0.2264
    149 O          68.5200    5.2620   41.2880 O.2     1  PHE1       -0.2867
    150 CB         71.1130    4.5750   40.2300 C.3     1  PHE1        0.0534
    151 CG         72.6040    4.3850   40.1010 C.ar    1  PHE1       -0.0203
    152 CD1        73.2900    4.8800   38.9910 C.ar    1  PHE1       -0.0042
    153 CD2        73.3370    3.8130   41.1400 C.ar    1  PHE1       -0.0042
    154 CE1        74.6910    4.8150   38.9200 C.ar    1  PHE1       -0.0003
    155 CE2        74.7420    3.7450   41.0810 C.ar    1  PHE1       -0.0003
    156 CZ         75.4170    4.2470   39.9720 C.ar    1  PHE1       -0.0000
    157 N          64.7650    4.5830   43.6110 N.3     1  HIS1       -0.1227
    158 CA         66.1360    4.1700   43.3290 C.3     1  HIS1        0.1749
    159 C          66.2240    2.8830   42.5070 C.2     1  HIS1        0.2596
    160 O          65.6690    1.8530   42.8970 O.2     1  HIS1       -0.2718
    161 CB         66.8770    4.0030   44.6600 C.3     1  HIS1        0.0718
    162 CG         68.3460    3.7640   44.5150 C.2     1  HIS1        0.0650
    163 ND1        68.8650    2.5750   44.0480 N.2     1  HIS1       -0.2310
    164 CD2        69.4080    4.5540   44.7960 C.3     1  HIS1        0.1683
    165 CE1        70.1860    2.6440   44.0530 C.2     1  HIS1        0.1939
    166 NE2        70.5400    3.8340   44.5020 N.2     1  HIS1       -0.2440
    167 N          66.9210    2.9520   41.3720 N.am    2  ASP2       -0.1962
    168 CA         67.1060    1.7900   40.4890 C.3     2  ASP2        0.1768
    169 C          68.4900    1.8320   39.8600 C.2     2  ASP2        0.2462
    170 O          68.7470    2.6540   38.9870 O.2     2  ASP2       -0.2730
    171 CB         66.0690    1.7840   39.3680 C.3     2  ASP2        0.0727
    172 CG         66.0770    0.4820   38.5720 C.2     2  ASP2        0.0526
    173 OD1        67.1120    0.1420   37.9560 O.co2   2  ASP2       -0.5491
    174 OD2        65.0340   -0.2050   38.5630 O.co2   2  ASP2       -0.5491
    175 N          69.3920    0.9340   40.2840 N.am    3  PRO3       -0.2727
    176 CA         70.7750    0.8370   39.7880 C.3     3  PRO3        0.1402
    177 C          70.9180    0.3720   38.3380 C.2     3  PRO3        0.2269
    178 O          72.0320    0.1800   37.8460 O.2     3  PRO3       -0.2865
    179 CB         71.4170   -0.1400   40.7650 C.3     3  PRO3        0.0296
    180 CG         70.2710   -1.0690   41.0790 C.3     3  PRO3        0.0237
    181 CD         69.1310   -0.1000   41.3010 C.3     3  PRO3        0.0939
    182 N          71.2730    5.5830   51.8210 N.3     1  LYS1       -0.1231
    183 CA         71.3310    4.1690   51.5080 C.3     1  LYS1        0.1693
    184 C          70.0790    3.7690   50.7750 C.2     1  LYS1        0.2592
    185 O          69.0330    4.4090   50.8930 O.2     1  LYS1       -0.2718
    186 CB         71.4240    3.3340   52.7850 C.3     1  LYS1        0.0285
    187 CG         71.8300    1.8750   52.5640 C.3     1  LYS1        0.0035
    188 CD         73.3380    1.7720   52.2460 C.3     1  LYS1        0.0206
    189 CE         73.8170    0.3310   52.1340 C.3     1  LYS1        0.1093
    190 NZ         75.2790    0.2470   51.8440 N.3     1  LYS1       -0.1314
    191 N          70.1850    2.7010   50.0070 N.am    2  VAL2       -0.1966
    192 CA         69.0250    2.2100   49.3020 C.3     2  VAL2        0.1727
    193 C          68.1750    1.5410   50.3730 C.2     2  VAL2        0.2616
    194 O          68.7060    0.8920   51.2820 O.2     2  VAL2       -0.2715
    195 CB         69.4180    1.1670   48.2420 C.3     2  VAL2        0.0290
    196 CG2        68.1990    0.7520   47.4350 C.3     2  VAL2        0.0023
    197 CG1        70.4850    1.7440   47.3380 C.3     2  VAL2        0.0023
    198 N          66.8640    1.7500   50.2940 N.am    3  LEU3       -0.1964
    199 CA         65.9200    1.1320   51.2190 C.3     3  LEU3        0.1713
    200 C          65.0100    0.3130   50.3080 C.2     3  LEU3        0.2458
    201 O          64.0860    0.8530   49.6890 O.2     3  LEU3       -0.2730
    202 CB         65.0980    2.1810   51.9700 C.3     3  LEU3        0.0310
    203 CG         64.0250    1.5580   52.8750 C.3     3  LEU3        0.0022
    204 CD2        64.7090    0.7650   53.9670 C.3     3  LEU3        0.0001
    205 CD1        63.1270    2.6310   53.4780 C.3     3  LEU3        0.0001
    206 N          65.2780   -1.0000   50.1980 N.am    4  PRO4       -0.2727
    207 CA         64.5390   -1.9570   49.3740 C.3     4  PRO4        0.1402
    208 C          63.0740   -2.1040   49.7300 C.2     4  PRO4        0.2269
    209 O          62.6930   -1.9860   50.8930 O.2     4  PRO4       -0.2865
    210 CB         65.3000   -3.2590   49.5920 C.3     4  PRO4        0.0296
    211 CG         66.6500   -2.8110   49.8950 C.3     4  PRO4        0.0237
    212 CD         66.4120   -1.6740   50.8430 C.3     4  PRO4        0.0939
    213 N          61.8970    0.6240   45.3400 N.3     1  ASP1       -0.1241
    214 CA         63.1050    0.7840   46.1250 C.3     1  ASP1        0.1616
    215 C          63.3080    2.2770   46.2860 C.2     1  ASP1        0.2264
    216 O          63.1160    3.0520   45.3440 O.2     1  ASP1       -0.2867
    217 CB         64.3270    0.1890   45.4220 C.3     1  ASP1        0.0687
    218 CG         64.2750   -1.3210   45.3360 C.2     1  ASP1        0.0522
    219 OD2        63.7110   -1.9540   46.2600 O.co2   1  ASP1       -0.5491
    220 OD1        64.8150   -1.8740   44.3520 O.co2   1  ASP1       -0.5491
    221 N          65.8120    5.5490   48.1510 N.3     1  TYR1       -0.1241
    222 CA         67.1670    5.8870   48.5670 C.3     1  TYR1        0.1605
    223 C          66.9270    6.9290   49.6510 C.2     1  TYR1        0.2264
    224 O          66.4800    8.0380   49.3600 O.2     1  TYR1       -0.2867
    225 CB         67.9950    6.5000   47.4300 C.3     1  TYR1        0.0534
    226 CG         69.4100    6.8220   47.8760 C.ar    1  TYR1       -0.0201
    227 CD1        70.4430    5.8930   47.7280 C.ar    1  TYR1       -0.0009
    228 CD2        69.6880    8.0100   48.5560 C.ar    1  TYR1       -0.0009
    229 CE1        71.7150    6.1330   48.2540 C.ar    1  TYR1        0.0417
    230 CE2        70.9580    8.2610   49.0900 C.ar    1  TYR1        0.0417
    231 CZ         71.9670    7.3170   48.9370 C.ar    1  TYR1        0.1957
    232 OH         73.2080    7.5510   49.4890 O.3     1  TYR1       -0.2866
@<TRIPOS>UNITY_ATOM_ATTR
123 1
charge -1
173 1
charge -1
219 1
charge -1
@<TRIPOS>BOND
     1     1     2    1
     2     2     5    1
     3     2     3    1
     4     3    13   am
     5     3     4    2
     6     5     6    1
     7     6     7   ar
     8     6     8   ar
     9     7     9   ar
    10     8    10   ar
    11     9    11   ar
    12    10    11   ar
    13    11    12    1
    14    13    14    1
    15    14    17    1
    16    14    15    1
    17    15    16    2
    18    17    18    1
    19    17    19    1
    20    20    21    1
    21    20    26    1
    22    21    24    1
    23    21    22    1
    24    22    23    2
    25    24    25    1
    26    25    26    1
    27    27    28    1
    28    28    29    1
    29    28    31    1
    30    29    30    2
    31    29    34   am
    32    31    32    1
    33    31    33    1
    34    34    35    1
    35    35    38    1
    36    35    36    1
    37    36    42   am
    38    36    37    2
    39    38    40    1
    40    38    39    1
    41    39    41    1
    42    42    48    1
    43    42    43    1
    44    43    46    1
    45    43    44    1
    46    44    49   am
    47    44    45    2
    48    46    47    1
    49    47    48    1
    50    49    50    1
    51    50    53    1
    52    50    51    1
    53    51    52    2
    54    53    54    1
    55    53    55    1
    56    56    57    1
    57    57    58    1
    58    57    60    1
    59    58    59    2
    60    58    67   am
    61    60    61    1
    62    61    63   ar
    63    61    62   ar
    64    62    64   ar
    65    63    65   ar
    66    64    66   ar
    67    65    66   ar
    68    67    68    1
    69    68    69    1
    70    68    71    1
    71    69    74   am
    72    69    70    2
    73    71    72    1
    74    71    73    1
    75    74    75    1
    76    75    76    1
    77    75    78    1
    78    76    85   am
    79    76    77    2
    80    78    79    1
    81    79    80   ar
    82    79    81   ar
    83    80    82   ar
    84    81    83   ar
    85    82    84   ar
    86    83    84   ar
    87    85    86    1
    88    86    87    1
    89    86    89    1
    90    87    96   am
    91    87    88    2
    92    89    90    1
    93    90    91    1
    94    91    92    1
    95    92    93    2
    96    93    95    1
    97    93    94    1
    98    96    97    1
    99    97    98    1
   100    97   100    1
   101    98    99    2
   102   100   101    1
   103   102   103    1
   104   103   106    1
   105   103   104    1
   106   104   105    2
   107   106   107    1
   108   107   108    2
   109   107   109    1
   110   108   110    1
   111   109   112    1
   112   109   111    1
   113   110   111    2
   114   111   113    1
   115   112   114    2
   116   113   115    2
   117   114   115    1
   118   116   117    1
   119   117   120    1
   120   117   118    1
   121   118   119    2
   122   120   121    1
   123   121   122    1
   124   122   124   ar
   125   122   123   ar
   126   125   126    1
   127   126   127    1
   128   126   129    1
   129   127   128    2
   130   129   130    1
   131   130   131    2
   132   130   132    1
   133   131   133    1
   134   132   135    1
   135   132   134    1
   136   133   134    2
   137   134   136    1
   138   135   137    2
   139   136   138    2
   140   137   138    1
   141   139   140    1
   142   140   143    1
   143   140   141    1
   144   141   142    2
   145   143   144    1
   146   143   145    1
   147   146   147    1
   148   147   150    1
   149   147   148    1
   150   148   149    2
   151   150   151    1
   152   151   152   ar
   153   151   153   ar
   154   152   154   ar
   155   153   155   ar
   156   154   156   ar
   157   155   156   ar
   158   157   158    1
   159   158   159    1
   160   158   161    1
   161   159   167   am
   162   159   160    2
   163   161   162    1
   164   162   163    2
   165   162   164    1
   166   163   165    1
   167   164   166    1
   168   165   166    2
   169   167   168    1
   170   168   171    1
   171   168   169    1
   172   169   170    2
   173   169   175   am
   174   171   172    1
   175   172   173   ar
   176   172   174   ar
   177   175   176    1
   178   175   181    1
   179   176   177    1
   180   176   179    1
   181   177   178    2
   182   179   180    1
   183   180   181    1
   184   182   183    1
   185   183   184    1
   186   183   186    1
   187   184   191   am
   188   184   185    2
   189   186   187    1
   190   187   188    1
   191   188   189    1
   192   189   190    1
   193   191   192    1
   194   192   195    1
   195   192   193    1
   196   193   198   am
   197   193   194    2
   198   195   197    1
   199   195   196    1
   200   198   199    1
   201   199   200    1
   202   199   202    1
   203   200   201    2
   204   200   206   am
   205   202   203    1
   206   203   205    1
   207   203   204    1
   208   206   207    1
   209   206   212    1
   210   207   210    1
   211   207   208    1
   212   208   209    2
   213   210   211    1
   214   211   212    1
   215   213   214    1
   216   214   217    1
   217   214   215    1
   218   215   216    2
   219   217   218    1
   220   218   220   ar
   221   218   219   ar
   222   221   222    1
   223   222   225    1
   224   222   223    1
   225   223   224    2
   226   225   226    1
   227   226   227   ar
   228   226   228   ar
   229   227   229   ar
   230   228   230   ar
   231   229   231   ar
   232   230   231   ar
   233   231   232    1
