@<TRIPOS>MOLECULE
./3exs/protein.pdb
 264 253 0 0 0
SMALL
GASTEIGER

@<TRIPOS>ATOM
      1 N          19.0740   41.2090   67.0490 N.3     1  GLN1       -0.1231
      2 CA         19.3780   42.5300   67.5980 C.3     1  GLN1        0.1698
      3 C          18.6730   42.7090   68.9350 C.2     1  GLN1        0.2592
      4 O          17.5040   42.3420   69.0480 O.2     1  GLN1       -0.2718
      5 CB         18.9370   43.6030   66.5970 C.3     1  GLN1        0.0381
      6 CG         18.9020   45.0380   67.0880 C.3     1  GLN1        0.0905
      7 CD         18.6440   45.9830   65.9300 C.2     1  GLN1        0.2608
      8 OE1        18.9620   45.6680   64.7740 O.2     1  GLN1       -0.2717
      9 NE2        18.0490   47.1430   66.2200 N.am    1  GLN1       -0.0878
     10 N          19.3750   43.2300   69.9430 N.am    2  VAL2       -0.1966
     11 CA         18.7180   43.6360   71.1910 C.3     2  VAL2        0.1727
     12 C          18.4650   45.1610   71.1810 C.2     2  VAL2        0.2616
     13 O          19.3620   45.9490   70.8160 O.2     2  VAL2       -0.2715
     14 CB         19.4830   43.2140   72.4810 C.3     2  VAL2        0.0290
     15 CG1        20.8460   43.8810   72.5790 C.3     2  VAL2        0.0023
     16 CG2        18.6620   43.5190   73.7350 C.3     2  VAL2        0.0023
     17 N          17.2350   45.5470   71.5480 N.am    3  ALA3       -0.1963
     18 CA         16.8730   46.9410   71.7580 C.3     3  ALA3        0.1728
     19 C          17.0690   47.3110   73.2350 C.2     3  ALA3        0.2616
     20 O          16.3860   46.7490   74.1210 O.2     3  ALA3       -0.2715
     21 CB         15.4420   47.1790   71.3620 C.3     3  ALA3        0.0334
     22 N          17.9890   48.2490   73.4880 N.am    4  LEU4       -0.1963
     23 CA         18.1800   48.7690   74.8300 C.3     4  LEU4        0.1728
     24 C          17.2500   49.9690   74.9970 C.2     4  LEU4        0.2616
     25 O          17.5550   51.0820   74.5340 O.2     4  LEU4       -0.2715
     26 CB         19.6580   49.1390   75.1080 C.3     4  LEU4        0.0311
     27 CG         20.7410   48.0770   74.7890 C.3     4  LEU4        0.0022
     28 CD1        22.1590   48.6100   74.8750 C.3     4  LEU4        0.0001
     29 CD2        20.5920   46.8610   75.6510 C.3     4  LEU4        0.0001
     30 N          16.1190   49.7190   75.6620 N.am    5  ASP5       -0.1959
     31 CA         15.0430   50.7210   75.8280 C.3     5  ASP5        0.1783
     32 C          14.9060   51.2480   77.2490 C.2     5  ASP5        0.2620
     33 O          13.8750   51.8310   77.6070 O.2     5  ASP5       -0.2715
     34 CB         13.7010   50.1610   75.3540 C.3     5  ASP5        0.0728
     35 CG         13.6150   50.0990   73.8540 C.2     5  ASP5        0.0526
     36 OD1        14.4980   50.6790   73.1870 O.co2   5  ASP5       -0.5491
     37 OD2        12.6760   49.4660   73.3290 O.co2   5  ASP5       -0.5491
     38 N          15.9650   51.0430   78.0340 N.am    6  HIS6       -0.1973
     39 CA         16.0110   51.4340   79.4400 C.3     6  HIS6        0.1652
     40 C          15.8950   52.9380   79.5930 C.2     6  HIS6        0.2291
     41 O          16.1730   53.6970   78.6660 O.2     6  HIS6       -0.2864
     42 CB         17.3010   50.9310   80.0610 C.3     6  HIS6        0.0731
     43 CG         17.5090   49.4630   79.8920 C.2     6  HIS6        0.0652
     44 ND1        17.9540   48.9060   78.7120 N.2     6  HIS6       -0.2310
     45 CD2        17.3280   48.4310   80.7520 C.3     6  HIS6        0.1683
     46 CE1        18.0300   47.5920   78.8480 C.2     6  HIS6        0.1939
     47 NE2        17.6450   47.2790   80.0730 N.2     6  HIS6       -0.2440
     48 N          21.4090   47.8200   69.8430 N.3     1  GLU1       -0.1245
     49 CA         20.6590   49.0460   69.5500 C.3     1  GLU1        0.1565
     50 C          20.4940   49.9110   70.7830 C.2     1  GLU1        0.2260
     51 O          19.9540   49.4470   71.8010 O.2     1  GLU1       -0.2867
     52 CB         19.2640   48.7170   69.0000 C.3     1  GLU1        0.0329
     53 CG         18.3050   49.9070   68.8810 C.3     1  GLU1        0.0437
     54 CD         16.9430   49.5370   68.3070 C.2     1  GLU1        0.0504
     55 OE1        16.6870   48.3490   68.0460 O.co2   1  GLU1       -0.5492
     56 OE2        16.0970   50.4220   68.1030 O.co2   1  GLU1       -0.5492
     57 N          18.2380   52.3280   72.1880 N.3     1  GLY1       -0.1210
     58 CA         16.8640   52.6530   71.8460 C.3     1  GLY1        0.1956
     59 C          16.4860   54.0890   72.1430 C.2     1  GLY1        0.2613
     60 O          17.0260   54.7300   73.0770 O.2     1  GLY1       -0.2717
     61 N          15.5270   54.5780   71.3610 N.am    2  THR2       -0.1938
     62 CA         15.0420   55.9340   71.4790 C.3     2  THR2        0.2028
     63 C          14.8010   56.3600   72.9260 C.2     2  THR2        0.2642
     64 O          15.3020   57.3940   73.3600 O.2     2  THR2       -0.2714
     65 CB         13.7770   56.1160   70.6360 C.3     2  THR2        0.1808
     66 OG1        14.0180   55.5550   69.3400 O.3     2  THR2       -0.2208
     67 CG2        13.4130   57.6080   70.4770 C.3     2  THR2        0.0379
     68 N          14.0320   55.5720   73.6700 N.am    3  VAL3       -0.1977
     69 CA         13.6880   55.8960   75.0550 C.3     3  VAL3        0.1596
     70 C          14.9710   56.1720   75.8190 C.2     3  VAL3        0.2287
     71 O          15.0480   57.1130   76.6320 O.2     3  VAL3       -0.2864
     72 CB         12.9210   54.7540   75.7340 C.3     3  VAL3        0.0276
     73 CG2        12.7890   55.0170   77.2200 C.3     3  VAL3        0.0022
     74 CG1        11.5680   54.5360   75.0740 C.3     3  VAL3        0.0022
     75 N          23.3340   50.3040   66.6460 N.3     1  VAL1       -0.1245
     76 CA         22.2690   51.1330   66.1690 C.3     1  VAL1        0.1561
     77 C          22.0070   52.2800   67.1480 C.2     1  VAL1        0.2260
     78 O          21.8390   52.0600   68.3660 O.2     1  VAL1       -0.2867
     79 CB         20.9680   50.3190   66.0050 C.3     1  VAL1        0.0252
     80 CG2        19.8010   51.2200   65.5580 C.3     1  VAL1        0.0019
     81 CG1        21.1600   49.2010   64.9980 C.3     1  VAL1        0.0019
     82 N          19.0520   54.5190   67.7270 N.3     1  ASP1       -0.1241
     83 CA         17.6400   54.5600   67.3640 C.3     1  ASP1        0.1616
     84 C          17.0550   55.9580   67.6070 C.2     1  ASP1        0.2264
     85 O          16.3560   56.1960   68.5900 O.2     1  ASP1       -0.2867
     86 CB         16.8550   53.4990   68.1590 C.3     1  ASP1        0.0687
     87 CG         15.4410   53.2670   67.6190 C.2     1  ASP1        0.0522
     88 OD1        15.1660   53.6140   66.4540 O.co2   1  ASP1       -0.5491
     89 OD2        14.6090   52.7040   68.3560 O.co2   1  ASP1       -0.5491
     90 N          15.1540   57.8200   65.3980 N.3     1  LYS1       -0.1245
     91 CA         13.8510   58.0800   64.7800 C.3     1  LYS1        0.1561
     92 C          13.8480   59.5510   64.3690 C.2     1  LYS1        0.2260
     93 O          12.9050   60.3170   64.6490 O.2     1  LYS1       -0.2867
     94 CB         12.7120   57.8100   65.7560 C.3     1  LYS1        0.0271
     95 CG         12.4360   56.3630   66.0310 C.3     1  LYS1        0.0035
     96 CD         11.3060   56.2170   67.0680 C.3     1  LYS1        0.0206
     97 CE         10.9090   54.7680   67.2740 C.3     1  LYS1        0.1093
     98 NZ         12.0690   53.9600   67.7150 N.3     1  LYS1       -0.1314
     99 N          18.2870   55.1450   62.6800 N.3     1  THR1       -0.1218
    100 CA         16.9200   55.1800   62.1890 C.3     1  THR1        0.1862
    101 C          16.4420   56.6160   61.8390 C.2     1  THR1        0.2287
    102 O          16.7350   57.5670   62.5650 O.2     1  THR1       -0.2866
    103 CB         15.9350   54.5280   63.1910 C.3     1  THR1        0.1770
    104 OG1        16.0130   55.1820   64.4610 O.3     1  THR1       -0.2211
    105 CG2        16.2430   53.0350   63.3750 C.3     1  THR1        0.0375
    106 N          18.2160   53.4720   58.4520 N.3     1  GLN1       -0.1245
    107 CA         17.0810   52.5700   58.5040 C.3     1  GLN1        0.1566
    108 C          15.8000   53.3840   58.6370 C.2     1  GLN1        0.2260
    109 O          15.7280   54.3510   59.4280 O.2     1  GLN1       -0.2867
    110 CB         17.1990   51.6300   59.7130 C.3     1  GLN1        0.0367
    111 CG         18.5510   50.9520   59.8610 C.3     1  GLN1        0.0905
    112 CD         18.5660   49.9640   60.9960 C.2     1  GLN1        0.2608
    113 OE1        18.4430   50.3360   62.1660 O.2     1  GLN1       -0.2717
    114 NE2        18.7060   48.6890   60.6650 N.am    1  GLN1       -0.0878
    115 N          12.2000   53.5940   60.0220 N.3     1  GLU1       -0.1245
    116 CA         11.2090   53.1550   60.9920 C.3     1  GLU1        0.1565
    117 C           9.7690   53.4170   60.4980 C.2     1  GLU1        0.2260
    118 O           9.3390   54.5720   60.3030 O.2     1  GLU1       -0.2867
    119 CB         11.4360   53.8720   62.3290 C.3     1  GLU1        0.0329
    120 CG         12.5970   53.3620   63.1710 C.3     1  GLU1        0.0437
    121 CD         12.2120   52.1910   64.0560 C.2     1  GLU1        0.0504
    122 OE1        11.1240   51.6040   63.8580 O.co2   1  GLU1       -0.5492
    123 OE2        13.0020   51.8390   64.9590 O.co2   1  GLU1       -0.5492
    124 N           6.1020   53.6750   60.9060 N.3     1  TYR1       -0.1241
    125 CA          5.0070   53.9410   61.8130 C.3     1  TYR1        0.1605
    126 C           3.8780   54.6280   61.0420 C.2     1  TYR1        0.2264
    127 O           4.1490   55.3370   60.0760 O.2     1  TYR1       -0.2867
    128 CB          5.5050   54.8390   62.9370 C.3     1  TYR1        0.0534
    129 CG          6.1790   54.1110   64.0810 C.ar    1  TYR1       -0.0201
    130 CD2         5.4620   53.7330   65.2110 C.ar    1  TYR1       -0.0009
    131 CD1         7.5440   53.8250   64.0430 C.ar    1  TYR1       -0.0009
    132 CE2         6.1070   53.0720   66.2770 C.ar    1  TYR1        0.0417
    133 CE1         8.1860   53.1580   65.0870 C.ar    1  TYR1        0.0417
    134 CZ          7.4700   52.7830   66.1920 C.ar    1  TYR1        0.1957
    135 OH          8.1130   52.1380   67.2140 O.3     1  TYR1       -0.2866
    136 N          12.3540   48.9390   59.0600 N.3     1  ILE1       -0.1245
    137 CA         12.1030   48.2340   60.2850 C.3     1  ILE1        0.1561
    138 C          10.6190   48.2660   60.4580 C.2     1  ILE1        0.2260
    139 O          10.0240   49.3320   60.6240 O.2     1  ILE1       -0.2867
    140 CB         12.7710   48.9240   61.4700 C.3     1  ILE1        0.0252
    141 CG1        14.2770   48.8090   61.3260 C.3     1  ILE1        0.0019
    142 CG2        12.2980   48.3110   62.7920 C.3     1  ILE1        0.0019
    143 CD1        14.9680   49.9730   61.7840 C.3     1  ILE1        0.0001
    144 N           7.1090   46.9870   62.3770 N.3     1  HIS1       -0.1226
    145 CA          6.5780   46.7240   63.7130 C.3     1  HIS1        0.1752
    146 C           5.2730   45.9220   63.6860 C.2     1  HIS1        0.2596
    147 O           4.3300   46.2800   62.9600 O.2     1  HIS1       -0.2718
    148 CB          6.3570   48.0480   64.4390 C.3     1  HIS1        0.0759
    149 CG          7.6080   48.8430   64.6310 C.ar    1  HIS1        0.0818
    150 ND1         8.1650   49.0650   65.8720 N.ar    1  HIS1       -0.2268
    151 CD2         8.4150   49.4620   63.7380 C.ar    1  HIS1        0.1154
    152 CE1         9.2580   49.7930   65.7330 C.ar    1  HIS1        0.1986
    153 NE2         9.4320   50.0440   64.4480 N.ar    1  HIS1       -0.2212
    154 N           5.2340   44.8330   64.4640 N.am    2  GLN2       -0.1965
    155 CA          4.0120   44.0420   64.6830 C.3     2  GLN2        0.1733
    156 C           2.9010   44.9870   65.1720 C.2     2  GLN2        0.2617
    157 O           3.1660   45.8800   65.9950 O.2     2  GLN2       -0.2715
    158 CB          4.2720   42.8930   65.7000 C.3     2  GLN2        0.0408
    159 CG          4.3600   41.4250   65.1400 C.3     2  GLN2        0.0908
    160 CD          5.5240   41.1470   64.1260 C.2     2  GLN2        0.2608
    161 OE1         6.2810   42.0500   63.7350 O.2     2  GLN2       -0.2717
    162 NE2         5.6430   39.8810   63.7020 N.am    2  GLN2       -0.0878
    163 N           1.6860   44.7960   64.6450 N.am    3  SER3       -0.1936
    164 CA          0.5120   45.6380   64.9530 C.3     3  SER3        0.2055
    165 C          -0.1910   45.2830   66.2840 C.2     3  SER3        0.2642
    166 O          -0.3470   44.0960   66.5920 O.2     3  SER3       -0.2714
    167 CB         -0.5170   45.5230   63.8180 C.3     3  SER3        0.2130
    168 OG          0.0680   45.7310   62.5460 O.3     3  SER3       -0.2179
    169 N          -0.6420   46.2920   67.0470 N.am    4  ARG4       -0.1977
    170 CA         -1.3710   46.0650   68.3230 C.3     4  ARG4        0.1597
    171 C          -2.8780   46.1560   68.1160 C.2     4  ARG4        0.2287
    172 O          -3.5910   45.1800   68.3410 O.2     4  ARG4       -0.2864
    173 CB         -0.9340   47.0500   69.4290 C.3     4  ARG4        0.0334
    174 CG          0.5780   47.0730   69.7270 C.3     4  ARG4        0.0492
    175 CD          1.1340   48.5190   69.6540 C.3     4  ARG4        0.2205
    176 NE          2.5780   48.5910   69.3670 N.pl3   4  ARG4       -0.0865
    177 CZ          3.4900   49.2110   70.1230 C.cat   4  ARG4        0.5346
    178 NH2         3.1450   49.8320   71.2420 N.pl3   4  ARG4        0.1354
    179 NH1         4.7600   49.2170   69.7550 N.pl3   4  ARG4        0.1354
    180 N          10.1320   43.6010   64.3680 N.3     1  THR1       -0.1203
    181 CA         10.1790   43.8110   65.8040 C.3     1  THR1        0.1994
    182 C           8.7740   44.0420   66.3510 C.2     1  THR1        0.2618
    183 O           7.8400   44.2660   65.5660 O.2     1  THR1       -0.2717
    184 CB         11.1060   44.9850   66.1480 C.3     1  THR1        0.1784
    185 OG1        11.3680   44.9700   67.5480 O.3     1  THR1       -0.2211
    186 CG2        10.4880   46.3370   65.7370 C.3     1  THR1        0.0376
    187 N           8.6290   43.9820   67.6790 N.am    2  GLY2       -0.1942
    188 CA          7.3330   44.1720   68.3460 C.3     2  GLY2        0.2014
    189 C           6.8900   42.9220   69.0820 C.2     2  GLY2        0.2639
    190 O           6.3660   41.9850   68.4750 O.2     2  GLY2       -0.2714
    191 N           7.1370   42.9040   70.3900 N.am    3  GLY3       -0.1939
    192 CA          6.7590   41.7920   71.2580 C.3     3  GLY3        0.2014
    193 C           7.1700   40.4210   70.7470 C.2     3  GLY3        0.2639
    194 O           6.4210   39.4510   70.8820 O.2     3  GLY3       -0.2714
    195 N           8.3540   40.3350   70.1530 N.am    4  LEU4       -0.1963
    196 CA          8.8420   39.0640   69.6590 C.3     4  LEU4        0.1728
    197 C           9.2160   38.1100   70.7900 C.2     4  LEU4        0.2616
    198 O          10.1230   38.3720   71.5780 O.2     4  LEU4       -0.2715
    199 CB         10.0330   39.2540   68.7180 C.3     4  LEU4        0.0311
    200 CG          9.7160   39.5210   67.2510 C.3     4  LEU4        0.0022
    201 CD1        10.9610   40.0120   66.5250 C.3     4  LEU4        0.0001
    202 CD2         9.1840   38.2590   66.6080 C.3     4  LEU4        0.0001
    203 N           8.4740   37.0150   70.8680 N.am    5  SER5       -0.1950
    204 CA          8.8740   35.8470   71.6210 C.3     5  SER5        0.1924
    205 CB          9.7680   35.0220   70.6980 C.2     5  SER5        0.2314
    206 OG          9.7790   35.2410   69.4780 O.2     5  SER5       -0.2863
    207 C           7.6250   35.0610   72.0360 C.3     5  SER5        0.2116
    208 O           7.8270   33.6570   71.9460 O.3     5  SER5       -0.2180
    209 N          14.4770   42.0910   65.9190 N.3     1  ILE1       -0.1231
    210 CA         14.8400   42.9510   67.0080 C.3     1  ILE1        0.1692
    211 C          14.0500   42.5350   68.2230 C.2     1  ILE1        0.2592
    212 O          12.8220   42.6330   68.2400 O.2     1  ILE1       -0.2718
    213 CB         14.5770   44.4220   66.6690 C.3     1  ILE1        0.0266
    214 CG1        15.3600   44.8290   65.4250 C.3     1  ILE1        0.0019
    215 CG2        14.9500   45.3020   67.8440 C.3     1  ILE1        0.0020
    216 CD1        15.0140   46.1990   64.9270 C.3     1  ILE1        0.0001
    217 N          14.7520   42.0740   69.2470 N.am    2  ALA2       -0.1966
    218 CA         14.0940   41.7550   70.5000 C.3     2  ALA2        0.1728
    219 C          14.5130   42.7420   71.5710 C.2     2  ALA2        0.2617
    220 O          15.7170   42.9360   71.8180 O.2     2  ALA2       -0.2715
    221 CB         14.3890   40.3030   70.9340 C.3     2  ALA2        0.0334
    222 N          13.5050   43.3810   72.1730 N.am    3  GLY3       -0.1940
    223 CA         13.6780   44.1870   73.3650 C.3     3  GLY3        0.2014
    224 C          13.3630   43.3850   74.6100 C.2     3  GLY3        0.2639
    225 O          14.1890   42.6040   75.0740 O.2     3  GLY3       -0.2714
    226 N          12.1490   43.5560   75.1310 N.am    4  ARG4       -0.1963
    227 CA         11.7450   42.9820   76.4240 C.3     4  ARG4        0.1729
    228 C          11.8720   41.4600   76.5800 C.2     4  ARG4        0.2617
    229 O          12.0680   40.9600   77.6960 O.2     4  ARG4       -0.2715
    230 CB         10.3360   43.4470   76.8050 C.3     4  ARG4        0.0348
    231 CG         10.2920   44.8650   77.4120 C.3     4  ARG4        0.0492
    232 CD          8.8470   45.3440   77.5540 C.3     4  ARG4        0.2205
    233 NE          8.1550   45.1430   76.2890 N.pl3   4  ARG4       -0.0865
    234 CZ          7.5510   46.0970   75.5850 C.cat   4  ARG4        0.5346
    235 NH2         7.5090   47.3560   76.0190 N.pl3   4  ARG4        0.1354
    236 NH1         6.9690   45.7770   74.4370 N.pl3   4  ARG4        0.1354
    237 N          11.7590   40.7310   75.4770 N.am    5  GLY5       -0.1940
    238 CA         11.9610   39.2900   75.5040 C.3     5  GLY5        0.2014
    239 C          13.3810   38.9140   75.9000 C.2     5  GLY5        0.2639
    240 O          13.5990   37.8570   76.4840 O.2     5  GLY5       -0.2714
    241 N          14.3530   39.7730   75.5800 N.am    6  ILE6       -0.1963
    242 CA         15.7340   39.6060   76.0600 C.3     6  ILE6        0.1727
    243 C          15.9690   40.3560   77.3670 C.2     6  ILE6        0.2617
    244 O          16.4510   39.7710   78.3290 O.2     6  ILE6       -0.2715
    245 CB         16.7810   40.0620   75.0250 C.3     6  ILE6        0.0290
    246 CG1        16.8280   39.0920   73.8590 C.3     6  ILE6        0.0022
    247 CG2        18.1810   40.2020   75.6640 C.3     6  ILE6        0.0023
    248 CD1        17.7820   39.5150   72.8140 C.3     6  ILE6        0.0001
    249 N          15.6050   41.6350   77.3910 N.am    7  THR7       -0.1937
    250 CA         16.0180   42.5620   78.4440 C.3     7  THR7        0.2028
    251 C          15.2520   42.4330   79.7520 C.2     7  THR7        0.2642
    252 O          15.6180   43.0690   80.7400 O.2     7  THR7       -0.2714
    253 CB         15.8800   44.0500   77.9890 C.3     7  THR7        0.1808
    254 OG1        14.5350   44.3090   77.5540 O.3     7  THR7       -0.2208
    255 CG2        16.8640   44.3880   76.8790 C.3     7  THR7        0.0379
    256 N          14.1600   41.6710   79.7510 N.am    8  GLU8       -0.1977
    257 CA         13.3270   41.4940   80.9450 C.3     8  GLU8        0.1600
    258 C          13.0890   40.0150   81.2090 C.2     8  GLU8        0.2287
    259 O          12.3360   39.6550   82.0990 O.2     8  GLU8       -0.2864
    260 CB         11.9990   42.2260   80.8060 C.3     8  GLU8        0.0356
    261 CG         12.0440   43.6780   81.2090 C.3     8  GLU8        0.0439
    262 CD         10.7690   44.4330   80.8340 C.2     8  GLU8        0.0504
    263 OE1         9.7190   43.7800   80.5730 O.co2   8  GLU8       -0.5492
    264 OE2        10.8220   45.6910   80.8030 O.co2   8  GLU8       -0.5492
@<TRIPOS>UNITY_ATOM_ATTR
36 1
charge -1
55 1
charge -1
88 1
charge -1
122 1
charge -1
263 1
charge -1
@<TRIPOS>BOND
     1     1     2    1
     2     2     5    1
     3     2     3    1
     4     3     4    2
     5     3    10   am
     6     5     6    1
     7     6     7    1
     8     7     8    2
     9     7     9   am
    10    10    11    1
    11    11    12    1
    12    11    14    1
    13    12    13    2
    14    12    17   am
    15    14    15    1
    16    14    16    1
    17    17    18    1
    18    18    21    1
    19    18    19    1
    20    19    22   am
    21    19    20    2
    22    22    23    1
    23    23    24    1
    24    23    26    1
    25    24    25    2
    26    24    30   am
    27    26    27    1
    28    27    28    1
    29    27    29    1
    30    30    31    1
    31    31    34    1
    32    31    32    1
    33    32    33    2
    34    32    38   am
    35    34    35    1
    36    35    36   ar
    37    35    37   ar
    38    38    39    1
    39    39    40    1
    40    39    42    1
    41    40    41    2
    42    42    43    1
    43    43    44    2
    44    43    45    1
    45    44    46    1
    46    45    47    1
    47    46    47    2
    48    48    49    1
    49    49    52    1
    50    49    50    1
    51    50    51    2
    52    52    53    1
    53    53    54    1
    54    54    55   ar
    55    54    56   ar
    56    57    58    1
    57    58    59    1
    58    59    61   am
    59    59    60    2
    60    61    62    1
    61    62    65    1
    62    62    63    1
    63    63    64    2
    64    63    68   am
    65    65    66    1
    66    65    67    1
    67    68    69    1
    68    69    72    1
    69    69    70    1
    70    70    71    2
    71    72    74    1
    72    72    73    1
    73    75    76    1
    74    76    79    1
    75    76    77    1
    76    77    78    2
    77    79    81    1
    78    79    80    1
    79    82    83    1
    80    83    84    1
    81    83    86    1
    82    84    85    2
    83    86    87    1
    84    87    88   ar
    85    87    89   ar
    86    90    91    1
    87    91    92    1
    88    91    94    1
    89    92    93    2
    90    94    95    1
    91    95    96    1
    92    96    97    1
    93    97    98    1
    94    99   100    1
    95   100   101    1
    96   100   103    1
    97   101   102    2
    98   103   105    1
    99   103   104    1
   100   106   107    1
   101   107   108    1
   102   107   110    1
   103   108   109    2
   104   110   111    1
   105   111   112    1
   106   112   114   am
   107   112   113    2
   108   115   116    1
   109   116   117    1
   110   116   119    1
   111   117   118    2
   112   119   120    1
   113   120   121    1
   114   121   122   ar
   115   121   123   ar
   116   124   125    1
   117   125   126    1
   118   125   128    1
   119   126   127    2
   120   128   129    1
   121   129   131   ar
   122   129   130   ar
   123   130   132   ar
   124   131   133   ar
   125   132   134   ar
   126   133   134   ar
   127   134   135    1
   128   136   137    1
   129   137   138    1
   130   137   140    1
   131   138   139    2
   132   140   141    1
   133   140   142    1
   134   141   143    1
   135   144   145    1
   136   145   146    1
   137   145   148    1
   138   146   147    2
   139   146   154   am
   140   148   149    1
   141   149   151   ar
   142   149   150   ar
   143   150   152   ar
   144   151   153   ar
   145   152   153   ar
   146   154   155    1
   147   155   156    1
   148   155   158    1
   149   156   163   am
   150   156   157    2
   151   158   159    1
   152   159   160    1
   153   160   162   am
   154   160   161    2
   155   163   164    1
   156   164   167    1
   157   164   165    1
   158   165   166    2
   159   165   169   am
   160   167   168    1
   161   169   170    1
   162   170   171    1
   163   170   173    1
   164   171   172    2
   165   173   174    1
   166   174   175    1
   167   175   176    1
   168   176   177    2
   169   177   179    1
   170   177   178    1
   171   180   181    1
   172   181   184    1
   173   181   182    1
   174   182   183    2
   175   182   187   am
   176   184   186    1
   177   184   185    1
   178   187   188    1
   179   188   189    1
   180   189   190    2
   181   189   191   am
   182   191   192    1
   183   192   193    1
   184   193   195   am
   185   193   194    2
   186   195   196    1
   187   196   199    1
   188   196   197    1
   189   197   203   am
   190   197   198    2
   191   199   200    1
   192   200   201    1
   193   200   202    1
   194   203   204    1
   195   204   205    1
   196   204   207    1
   197   205   206    2
   198   207   208    1
   199   209   210    1
   200   210   213    1
   201   210   211    1
   202   211   212    2
   203   211   217   am
   204   213   214    1
   205   213   215    1
   206   214   216    1
   207   217   218    1
   208   218   221    1
   209   218   219    1
   210   219   220    2
   211   219   222   am
   212   222   223    1
   213   223   224    1
   214   224   225    2
   215   224   226   am
   216   226   227    1
   217   227   228    1
   218   227   230    1
   219   228   237   am
   220   228   229    2
   221   230   231    1
   222   231   232    1
   223   232   233    1
   224   233   234    2
   225   234   236    1
   226   234   235    1
   227   237   238    1
   228   238   239    1
   229   239   241   am
   230   239   240    2
   231   241   242    1
   232   242   245    1
   233   242   243    1
   234   243   249   am
   235   243   244    2
   236   245   246    1
   237   245   247    1
   238   246   248    1
   239   249   250    1
   240   250   253    1
   241   250   251    1
   242   251   256   am
   243   251   252    2
   244   253   255    1
   245   253   254    1
   246   256   257    1
   247   257   260    1
   248   257   258    1
   249   258   259    2
   250   260   261    1
   251   261   262    1
   252   262   263   ar
   253   262   264   ar
