@<TRIPOS>MOLECULE
./1q8j/protein.pdb
 236 229 0 0 0
SMALL
GASTEIGER

@<TRIPOS>ATOM
      1 N         -13.1840  -19.3150   68.0500 N.3     1  ASP1       -0.1227
      2 CA        -14.3640  -18.8560   68.7680 C.3     1  ASP1        0.1748
      3 C         -15.1370  -17.8210   67.9590 C.2     1  ASP1        0.2596
      4 O         -14.8710  -17.6340   66.7750 O.2     1  ASP1       -0.2718
      5 CB        -13.9690  -18.3080   70.1390 C.3     1  ASP1        0.0701
      6 CG        -12.8700  -17.2210   70.0460 C.2     1  ASP1        0.0523
      7 OD2       -12.3890  -16.8180   71.1090 O.co2   1  ASP1       -0.5491
      8 OD1       -12.5020  -16.8030   68.9300 O.co2   1  ASP1       -0.5491
      9 N         -16.0990  -17.1640   68.5920 N.am    2  GLY2       -0.1942
     10 CA        -16.9210  -16.1650   67.9030 C.3     2  GLY2        0.2014
     11 C         -16.4550  -14.7590   68.2810 C.2     2  GLY2        0.2639
     12 O         -15.3130  -14.5870   68.6660 O.2     2  GLY2       -0.2714
     13 N         -17.3350  -13.7670   68.1690 N.am    3  ALA3       -0.1963
     14 CA        -17.0150  -12.3740   68.4890 C.3     3  ALA3        0.1728
     15 C         -17.0510  -12.0580   69.9850 C.2     3  ALA3        0.2616
     16 O         -17.7540  -12.7200   70.7710 O.2     3  ALA3       -0.2715
     17 CB        -18.0280  -11.4330   67.7430 C.3     3  ALA3        0.0334
     18 N         -16.2810  -11.0420   70.3800 N.am    4  TYR4       -0.1960
     19 CA        -16.2860  -10.5760   71.7550 C.3     4  TYR4        0.1771
     20 C         -16.8930   -9.1520   71.7730 C.2     4  TYR4        0.2620
     21 O         -17.8200   -8.8880   72.5340 O.2     4  TYR4       -0.2715
     22 CB        -14.8800  -10.6030   72.3540 C.3     4  TYR4        0.0574
     23 CG        -14.4240  -12.0160   72.6330 C.ar    4  TYR4       -0.0198
     24 CD1       -13.8820  -12.8060   71.6220 C.ar    4  TYR4       -0.0009
     25 CD2       -14.6060  -12.5950   73.8870 C.ar    4  TYR4       -0.0009
     26 CE1       -13.5370  -14.1360   71.8470 C.ar    4  TYR4        0.0417
     27 CE2       -14.2620  -13.9410   74.1290 C.ar    4  TYR4        0.0417
     28 CZ        -13.7300  -14.7040   73.1030 C.ar    4  TYR4        0.1957
     29 OH        -13.3610  -16.0300   73.3210 O.3     4  TYR4       -0.2866
     30 N         -16.3850   -8.2700   70.9060 N.am    5  GLY5       -0.1940
     31 CA        -16.8850   -6.9070   70.8230 C.3     5  GLY5        0.2014
     32 C         -18.3920   -6.8910   70.6110 C.2     5  GLY5        0.2639
     33 O         -19.1400   -6.3020   71.3880 O.2     5  GLY5       -0.2714
     34 N         -18.8640   -7.5460   69.5610 N.am    6  THR6       -0.1950
     35 CA        -20.3010   -7.5750   69.3310 C.3     6  THR6        0.1897
     36 C         -21.1310   -8.3640   70.3660 C.2     6  THR6        0.2313
     37 O         -22.3750   -8.3820   70.2690 O.2     6  THR6       -0.2863
     38 CB        -20.6030   -8.1120   67.9410 C.3     6  THR6        0.1794
     39 OG1       -20.1090   -9.4500   67.8350 O.3     6  THR6       -0.2208
     40 CG2       -19.9150   -7.2280   66.8800 C.3     6  THR6        0.0378
     41 N         -20.3350   -8.3860   74.1590 N.3     1  PHE1       -0.1241
     42 CA        -20.4060   -7.7090   75.4450 C.3     1  PHE1        0.1605
     43 C         -21.6660   -6.8480   75.6700 C.2     1  PHE1        0.2264
     44 O         -22.1850   -6.7760   76.7820 O.2     1  PHE1       -0.2867
     45 CB        -19.1280   -6.8920   75.6520 C.3     1  PHE1        0.0534
     46 CG        -17.8860   -7.7470   75.8870 C.ar    1  PHE1       -0.0203
     47 CD2       -17.9110   -8.7980   76.8080 C.ar    1  PHE1       -0.0042
     48 CD1       -16.7030   -7.4950   75.1920 C.ar    1  PHE1       -0.0042
     49 CE2       -16.7730   -9.5860   77.0370 C.ar    1  PHE1       -0.0003
     50 CE1       -15.5670   -8.2730   75.4110 C.ar    1  PHE1       -0.0003
     51 CZ        -15.5970   -9.3170   76.3310 C.ar    1  PHE1       -0.0000
     52 N         -18.9660   -0.7730   77.3410 N.3     1  ASP1       -0.1227
     53 CA        -17.6550   -0.1440   77.5210 C.3     1  ASP1        0.1748
     54 C         -16.6790   -0.7230   76.4810 C.2     1  ASP1        0.2596
     55 O         -16.9910   -1.6890   75.7860 O.2     1  ASP1       -0.2718
     56 CB        -17.0540   -0.4660   78.8920 C.3     1  ASP1        0.0701
     57 CG        -18.0460   -0.3430   80.0210 C.2     1  ASP1        0.0523
     58 OD1       -18.9260   -1.2240   80.1530 O.co2   1  ASP1       -0.5491
     59 OD2       -17.9360    0.6420   80.7800 O.co2   1  ASP1       -0.5491
     60 N         -15.4930   -0.1290   76.4060 N.am    2  LEU2       -0.1966
     61 CA        -14.4350   -0.5850   75.5110 C.3     2  LEU2        0.1713
     62 C         -14.0730   -2.0080   75.9910 C.2     2  LEU2        0.2458
     63 O         -13.7490   -2.2170   77.1550 O.2     2  LEU2       -0.2730
     64 CB        -13.2300    0.3440   75.6620 C.3     2  LEU2        0.0310
     65 CG        -11.9490    0.1180   74.8620 C.3     2  LEU2        0.0022
     66 CD1       -12.1660    0.5720   73.4070 C.3     2  LEU2        0.0001
     67 CD2       -10.8140    0.9260   75.4920 C.3     2  LEU2        0.0001
     68 N         -14.0990   -2.9960   75.0900 N.am    3  PRO3       -0.2716
     69 CA        -13.7770   -4.3710   75.4860 C.3     3  PRO3        0.1536
     70 C         -12.5820   -4.5750   76.4300 C.2     3  PRO3        0.2598
     71 O         -12.7050   -5.2430   77.4720 O.2     3  PRO3       -0.2715
     72 CB        -13.6070   -5.0700   74.1410 C.3     3  PRO3        0.0310
     73 CG        -14.6330   -4.4120   73.3010 C.3     3  PRO3        0.0237
     74 CD        -14.4720   -2.9290   73.6640 C.3     3  PRO3        0.0939
     75 N         -11.4300   -3.9990   76.0910 N.am    4  GLU4       -0.1978
     76 CA        -10.2370   -4.1790   76.9200 C.3     4  GLU4        0.1600
     77 C         -10.3770   -3.7260   78.3650 C.2     4  GLU4        0.2287
     78 O          -9.7410   -4.2750   79.2550 O.2     4  GLU4       -0.2864
     79 CB         -9.0370   -3.4700   76.2840 C.3     4  GLU4        0.0356
     80 CG         -8.6440   -4.0760   74.9540 C.3     4  GLU4        0.0439
     81 CD         -9.6440   -3.7700   73.8630 C.2     4  GLU4        0.0504
     82 OE1        -9.7310   -4.5550   72.8950 O.co2   4  GLU4       -0.5492
     83 OE2       -10.3350   -2.7380   73.9610 O.co2   4  GLU4       -0.5492
     84 N         -17.9770  -19.8350   74.5780 N.3     1  TYR1       -0.1241
     85 CA        -17.3880  -20.4280   73.3760 C.3     1  TYR1        0.1605
     86 C         -16.7890  -21.7900   73.6900 C.2     1  TYR1        0.2264
     87 O         -16.9380  -22.7170   72.9040 O.2     1  TYR1       -0.2867
     88 CB        -16.3510  -19.4790   72.7260 C.3     1  TYR1        0.0534
     89 CG        -17.0400  -18.2980   72.0740 C.ar    1  TYR1       -0.0201
     90 CD2       -16.6980  -16.9800   72.4090 C.ar    1  TYR1       -0.0009
     91 CD1       -18.0770  -18.5000   71.1820 C.ar    1  TYR1       -0.0009
     92 CE2       -17.3900  -15.8870   71.8580 C.ar    1  TYR1        0.0417
     93 CE1       -18.7840  -17.4330   70.6350 C.ar    1  TYR1        0.0417
     94 CZ        -18.4280  -16.1300   70.9800 C.ar    1  TYR1        0.1957
     95 OH        -19.1170  -15.0950   70.4380 O.3     1  TYR1       -0.2866
     96 N          -9.6270  -16.6550   71.7780 N.3     1  LEU1       -0.1231
     97 CA         -8.7350  -15.4820   71.6730 C.3     1  LEU1        0.1693
     98 C          -8.7550  -14.6300   72.9650 C.2     1  LEU1        0.2593
     99 O          -9.8170  -14.4410   73.5630 O.2     1  LEU1       -0.2718
    100 CB         -9.2060  -14.5930   70.5290 C.3     1  LEU1        0.0284
    101 CG         -9.3390  -15.1300   69.0950 C.3     1  LEU1        0.0019
    102 CD1        -9.9640  -14.0500   68.2120 C.3     1  LEU1        0.0001
    103 CD2        -7.9980  -15.5310   68.5530 C.3     1  LEU1        0.0001
    104 N          -7.6050  -14.0800   73.3780 N.am    2  THR2       -0.1939
    105 CA         -7.5980  -13.2170   74.5590 C.3     2  THR2        0.2028
    106 C          -8.3370  -11.9140   74.1860 C.2     2  THR2        0.2642
    107 O          -8.3680  -11.5060   73.0050 O.2     2  THR2       -0.2714
    108 CB         -6.1500  -12.9210   75.0280 C.3     2  THR2        0.1808
    109 OG1        -5.4080  -12.3810   73.9350 O.3     2  THR2       -0.2208
    110 CG2        -5.4540  -14.2150   75.4880 C.3     2  THR2        0.0379
    111 N          -8.9330  -11.2640   75.1810 N.am    3  ASN3       -0.1957
    112 CA         -9.7090  -10.0310   74.9950 C.3     3  ASN3        0.1819
    113 C          -8.7240   -8.8430   75.0000 C.2     3  ASN3        0.2622
    114 O          -8.7870   -7.9670   75.8650 O.2     3  ASN3       -0.2715
    115 CB        -10.7040   -9.9260   76.1420 C.3     3  ASN3        0.1195
    116 CG        -11.5990   -8.7030   76.0740 C.2     3  ASN3        0.2630
    117 OD1       -11.9680   -8.2440   75.0200 O.2     3  ASN3       -0.2716
    118 ND2       -11.9900   -8.1990   77.2540 N.am    3  ASN3       -0.0877
    119 N          -7.8540   -8.8330   73.9920 N.am    4  THR4       -0.1937
    120 CA         -6.7760   -7.8610   73.8780 C.3     4  THR4        0.2028
    121 C          -6.6640   -7.2320   72.5060 C.2     4  THR4        0.2642
    122 O          -5.6280   -6.6400   72.1860 O.2     4  THR4       -0.2714
    123 CB         -5.4450   -8.5860   74.1720 C.3     4  THR4        0.1808
    124 OG1        -5.3520   -9.7500   73.3310 O.3     4  THR4       -0.2208
    125 CG2        -5.3960   -9.0540   75.5730 C.3     4  THR4        0.0379
    126 N          -7.7210   -7.3330   71.6920 N.am    5  PHE5       -0.1959
    127 CA         -7.6800   -6.7980   70.3590 C.3     5  PHE5        0.1771
    128 C          -7.1200   -5.3570   70.2790 C.2     5  PHE5        0.2620
    129 O          -6.3150   -5.0660   69.4060 O.2     5  PHE5       -0.2715
    130 CB         -9.0700   -6.8490   69.7300 C.3     5  PHE5        0.0574
    131 CG         -9.1120   -6.3380   68.3260 C.ar    5  PHE5       -0.0200
    132 CD2        -9.6460   -5.0750   68.0520 C.ar    5  PHE5       -0.0042
    133 CD1        -8.6200   -7.1060   67.2770 C.ar    5  PHE5       -0.0042
    134 CE2        -9.6860   -4.5690   66.7470 C.ar    5  PHE5       -0.0003
    135 CE1        -8.6470   -6.6390   65.9860 C.ar    5  PHE5       -0.0003
    136 CZ         -9.1800   -5.3610   65.7020 C.ar    5  PHE5       -0.0000
    137 N          -7.5420   -4.4720   71.1810 N.am    6  GLY6       -0.1954
    138 CA         -7.0430   -3.0980   71.1230 C.3     6  GLY6        0.1869
    139 C          -6.0300   -2.8170   72.2070 C.2     6  GLY6        0.2309
    140 O          -5.7820   -1.6470   72.5620 O.2     6  GLY6       -0.2863
    141 N          -2.8630    2.1640   70.7090 N.3     1  LYS1       -0.1245
    142 CA         -4.3190    2.1820   70.6540 C.3     1  LYS1        0.1561
    143 C          -4.9550    2.5980   71.9820 C.2     1  LYS1        0.2260
    144 O          -5.9060    3.3950   71.9940 O.2     1  LYS1       -0.2867
    145 CB         -4.8560    0.8160   70.2390 C.3     1  LYS1        0.0271
    146 CG         -6.3800    0.7210   70.2320 C.3     1  LYS1        0.0035
    147 CD         -6.9790    1.3580   69.0030 C.3     1  LYS1        0.0206
    148 CE         -7.3160    0.3100   67.9500 C.3     1  LYS1        0.1093
    149 NZ         -8.4650   -0.5910   68.3190 N.3     1  LYS1       -0.1314
    150 N          -4.5760  -12.2690   71.1560 N.3     1  ASP1       -0.1241
    151 CA         -5.2100  -11.5460   70.0690 C.3     1  ASP1        0.1616
    152 C          -4.7330  -10.0750   70.0200 C.2     1  ASP1        0.2264
    153 O          -4.8790   -9.3470   71.0020 O.2     1  ASP1       -0.2867
    154 CB         -6.7290  -11.5970   70.3080 C.3     1  ASP1        0.0687
    155 CG         -7.5320  -10.9180   69.2340 C.2     1  ASP1        0.0522
    156 OD1        -7.1680  -11.0140   68.0350 O.co2   1  ASP1       -0.5491
    157 OD2        -8.5650  -10.2990   69.5830 O.co2   1  ASP1       -0.5491
    158 N          -5.0130   -9.9460   64.1720 N.3     1  GLU1       -0.1231
    159 CA         -6.3190   -9.8770   63.5070 C.3     1  GLU1        0.1697
    160 C          -6.6720   -8.5430   62.8810 C.2     1  GLU1        0.2592
    161 O          -6.2730   -7.5060   63.4000 O.2     1  GLU1       -0.2718
    162 CB         -7.4440  -10.1530   64.5140 C.3     1  GLU1        0.0343
    163 CG         -7.7740  -11.6140   64.7800 C.3     1  GLU1        0.0437
    164 CD         -9.0140  -11.7830   65.6650 C.2     1  GLU1        0.0504
    165 OE2        -9.0810  -11.1460   66.7410 O.co2   1  GLU1       -0.5492
    166 OE1        -9.9250  -12.5710   65.2980 O.co2   1  GLU1       -0.5492
    167 N          -7.4170   -8.6040   61.7760 N.am    2  THR2       -0.1953
    168 CA         -7.9720   -7.3950   61.1350 C.3     2  THR2        0.1897
    169 C          -6.9910   -6.3150   60.6570 C.2     2  THR2        0.2313
    170 O          -7.3040   -5.1170   60.7240 O.2     2  THR2       -0.2863
    171 CB         -8.9580   -6.7470   62.1270 C.3     2  THR2        0.1794
    172 OG1        -9.5450   -7.7710   62.9440 O.3     2  THR2       -0.2208
    173 CG2       -10.1120   -5.9740   61.3830 C.3     2  THR2        0.0378
    174 N          -9.9770  -12.1840   58.2890 N.3     1  ASN1       -0.1225
    175 CA        -11.0990  -12.0900   59.1910 C.3     1  ASN1        0.1785
    176 C         -11.7900  -10.7370   59.0030 C.2     1  ASN1        0.2597
    177 O         -11.1910   -9.8040   58.4630 O.2     1  ASN1       -0.2718
    178 CB        -10.7160  -12.2620   60.6700 C.3     1  ASN1        0.1169
    179 CG         -9.9410  -11.0730   61.2310 C.2     1  ASN1        0.2627
    180 OD1        -8.7700  -10.8710   60.9060 O.2     1  ASN1       -0.2716
    181 ND2       -10.6050  -10.2690   62.0680 N.am    1  ASN1       -0.0877
    182 N         -13.0610  -10.6840   59.4020 N.am    2  CYS2       -0.1970
    183 CA        -13.8370   -9.4310   59.3830 C.3     2  CYS2        0.1712
    184 C         -14.1600   -8.8520   58.0030 C.2     2  CYS2        0.2296
    185 O         -13.8730   -9.4160   56.9460 O.2     2  CYS2       -0.2864
    186 CB        -13.0970   -8.3630   60.2440 C.3     2  CYS2        0.0983
    187 SG        -14.1440   -7.0160   60.9530 S.3     2  CYS2       -0.0798
    188 N         -12.1160  -16.1550   59.6190 N.3     1  GLU1       -0.1245
    189 CA        -13.1140  -15.7940   60.5780 C.3     1  GLU1        0.1565
    190 C         -14.0110  -14.7490   59.9110 C.2     1  GLU1        0.2260
    191 O         -13.7700  -13.5640   60.0590 O.2     1  GLU1       -0.2867
    192 CB        -12.5320  -15.1500   61.8530 C.3     1  GLU1        0.0329
    193 CG        -11.6350  -16.0390   62.6940 C.3     1  GLU1        0.0437
    194 CD        -10.9410  -15.2390   63.7730 C.2     1  GLU1        0.0504
    195 OE2       -11.2620  -15.4190   64.9520 O.co2   1  GLU1       -0.5492
    196 OE1       -10.0640  -14.4160   63.4110 O.co2   1  GLU1       -0.5492
    197 N         -17.3850  -12.4150   59.1310 N.3     1  ASN1       -0.1240
    198 CA        -18.3900  -11.7330   59.9440 C.3     1  ASN1        0.1653
    199 C         -19.6710  -12.5320   59.6590 C.2     1  ASN1        0.2266
    200 O         -19.7650  -13.1850   58.6330 O.2     1  ASN1       -0.2867
    201 CB        -18.6320  -10.3070   59.4340 C.3     1  ASN1        0.1155
    202 CG        -17.6130   -9.3310   59.9570 C.2     1  ASN1        0.2627
    203 OD1       -16.8660   -9.6640   60.8780 O.2     1  ASN1       -0.2716
    204 ND2       -17.5850   -8.1320   59.3980 N.am    1  ASN1       -0.0877
    205 N         -25.6410   -7.9600   62.2590 N.3     1  TYR1       -0.1241
    206 CA        -25.0510   -8.9880   61.4110 C.3     1  TYR1        0.1605
    207 C         -26.1710  -10.0250   61.3630 C.2     1  TYR1        0.2264
    208 O         -26.3760  -10.7640   62.3000 O.2     1  TYR1       -0.2867
    209 CB        -23.7960   -9.5170   62.1080 C.3     1  TYR1        0.0534
    210 CG        -22.7060   -8.4560   62.2100 C.ar    1  TYR1       -0.0201
    211 CD1       -21.8730   -8.1840   61.1250 C.ar    1  TYR1       -0.0009
    212 CD2       -22.5340   -7.7120   63.3720 C.ar    1  TYR1       -0.0009
    213 CE1       -20.8910   -7.1990   61.1960 C.ar    1  TYR1        0.0417
    214 CE2       -21.5450   -6.7140   63.4540 C.ar    1  TYR1        0.0417
    215 CZ        -20.7350   -6.4730   62.3600 C.ar    1  TYR1        0.1957
    216 OH        -19.7590   -5.5060   62.4160 O.3     1  TYR1       -0.2866
    217 N         -15.4130  -17.3740   63.6930 N.3     1  GLY1       -0.1210
    218 CA        -16.2060  -16.2560   63.1780 C.3     1  GLY1        0.1956
    219 C         -15.7690  -14.9510   63.8370 C.2     1  GLY1        0.2612
    220 O         -15.2490  -14.9750   64.9460 O.2     1  GLY1       -0.2717
    221 N         -15.9590  -13.8250   63.1490 N.am    2  CYS2       -0.1956
    222 CA        -15.6130  -12.5200   63.7230 C.3     2  CYS2        0.1843
    223 C         -16.9410  -11.8050   64.1030 C.2     2  CYS2        0.2626
    224 O         -17.9640  -12.4590   64.3710 O.2     2  CYS2       -0.2714
    225 CB        -14.8150  -11.6680   62.7140 C.3     2  CYS2        0.0997
    226 SG        -13.7030  -10.4700   63.5480 S.3     2  CYS2       -0.0797
    227 N         -16.9250  -10.4720   64.0970 N.am    3  CYS3       -0.1954
    228 CA        -18.1010   -9.6670   64.4570 C.3     3  CYS3        0.1843
    229 C         -19.4750  -10.2770   64.0450 C.2     3  CYS3        0.2626
    230 O         -19.6900  -10.6620   62.9080 O.2     3  CYS3       -0.2714
    231 CB        -17.9080   -8.2360   63.8850 C.3     3  CYS3        0.0997
    232 SG        -16.3830   -7.4370   64.5600 S.3     3  CYS3       -0.0797
    233 N         -20.3860  -10.3750   65.0010 N.am    4  GLY4       -0.1954
    234 CA        -21.7270  -10.8730   64.7220 C.3     4  GLY4        0.1869
    235 C         -21.9300  -12.3510   65.0170 C.2     4  GLY4        0.2309
    236 O         -23.0780  -12.8430   65.0980 O.2     4  GLY4       -0.2863
@<TRIPOS>UNITY_ATOM_ATTR
7 1
charge -1
58 1
charge -1
82 1
charge -1
156 1
charge -1
165 1
charge -1
195 1
charge -1
@<TRIPOS>BOND
     1     1     2    1
     2     2     3    1
     3     2     5    1
     4     3     4    2
     5     3     9   am
     6     5     6    1
     7     6     8   ar
     8     6     7   ar
     9     9    10    1
    10    10    11    1
    11    11    13   am
    12    11    12    2
    13    13    14    1
    14    14    17    1
    15    14    15    1
    16    15    18   am
    17    15    16    2
    18    18    19    1
    19    19    20    1
    20    19    22    1
    21    20    30   am
    22    20    21    2
    23    22    23    1
    24    23    24   ar
    25    23    25   ar
    26    24    26   ar
    27    25    27   ar
    28    26    28   ar
    29    27    28   ar
    30    28    29    1
    31    30    31    1
    32    31    32    1
    33    32    34   am
    34    32    33    2
    35    34    35    1
    36    35    38    1
    37    35    36    1
    38    36    37    2
    39    38    40    1
    40    38    39    1
    41    41    42    1
    42    42    45    1
    43    42    43    1
    44    43    44    2
    45    45    46    1
    46    46    48   ar
    47    46    47   ar
    48    47    49   ar
    49    48    50   ar
    50    49    51   ar
    51    50    51   ar
    52    52    53    1
    53    53    54    1
    54    53    56    1
    55    54    55    2
    56    54    60   am
    57    56    57    1
    58    57    58   ar
    59    57    59   ar
    60    60    61    1
    61    61    64    1
    62    61    62    1
    63    62    68   am
    64    62    63    2
    65    64    65    1
    66    65    66    1
    67    65    67    1
    68    68    74    1
    69    68    69    1
    70    69    72    1
    71    69    70    1
    72    70    75   am
    73    70    71    2
    74    72    73    1
    75    73    74    1
    76    75    76    1
    77    76    79    1
    78    76    77    1
    79    77    78    2
    80    79    80    1
    81    80    81    1
    82    81    82   ar
    83    81    83   ar
    84    84    85    1
    85    85    88    1
    86    85    86    1
    87    86    87    2
    88    88    89    1
    89    89    91   ar
    90    89    90   ar
    91    90    92   ar
    92    91    93   ar
    93    92    94   ar
    94    93    94   ar
    95    94    95    1
    96    96    97    1
    97    97   100    1
    98    97    98    1
    99    98   104   am
   100    98    99    2
   101   100   101    1
   102   101   102    1
   103   101   103    1
   104   104   105    1
   105   105   106    1
   106   105   108    1
   107   106   107    2
   108   106   111   am
   109   108   109    1
   110   108   110    1
   111   111   112    1
   112   112   113    1
   113   112   115    1
   114   113   119   am
   115   113   114    2
   116   115   116    1
   117   116   117    2
   118   116   118   am
   119   119   120    1
   120   120   121    1
   121   120   123    1
   122   121   126   am
   123   121   122    2
   124   123   124    1
   125   123   125    1
   126   126   127    1
   127   127   130    1
   128   127   128    1
   129   128   129    2
   130   128   137   am
   131   130   131    1
   132   131   133   ar
   133   131   132   ar
   134   132   134   ar
   135   133   135   ar
   136   134   136   ar
   137   135   136   ar
   138   137   138    1
   139   138   139    1
   140   139   140    2
   141   141   142    1
   142   142   145    1
   143   142   143    1
   144   143   144    2
   145   145   146    1
   146   146   147    1
   147   147   148    1
   148   148   149    1
   149   150   151    1
   150   151   152    1
   151   151   154    1
   152   152   153    2
   153   154   155    1
   154   155   156   ar
   155   155   157   ar
   156   158   159    1
   157   159   160    1
   158   159   162    1
   159   160   167   am
   160   160   161    2
   161   162   163    1
   162   163   164    1
   163   164   166   ar
   164   164   165   ar
   165   167   168    1
   166   168   169    1
   167   168   171    1
   168   169   170    2
   169   171   173    1
   170   171   172    1
   171   174   175    1
   172   175   176    1
   173   175   178    1
   174   176   177    2
   175   176   182   am
   176   178   179    1
   177   179   180    2
   178   179   181   am
   179   182   183    1
   180   183   184    1
   181   183   186    1
   182   184   185    2
   183   186   187    1
   184   188   189    1
   185   189   190    1
   186   189   192    1
   187   190   191    2
   188   192   193    1
   189   193   194    1
   190   194   196   ar
   191   194   195   ar
   192   197   198    1
   193   198   201    1
   194   198   199    1
   195   199   200    2
   196   201   202    1
   197   202   204   am
   198   202   203    2
   199   205   206    1
   200   206   207    1
   201   206   209    1
   202   207   208    2
   203   209   210    1
   204   210   211   ar
   205   210   212   ar
   206   211   213   ar
   207   212   214   ar
   208   213   215   ar
   209   214   215   ar
   210   215   216    1
   211   217   218    1
   212   218   219    1
   213   219   221   am
   214   219   220    2
   215   221   222    1
   216   222   225    1
   217   222   223    1
   218   223   227   am
   219   223   224    2
   220   225   226    1
   221   227   228    1
   222   228   231    1
   223   228   229    1
   224   229   230    2
   225   229   233   am
   226   231   232    1
   227   233   234    1
   228   234   235    1
   229   235   236    2
