@<TRIPOS>MOLECULE
./3m4e/protein.pdb
 73 69 0 0 0
SMALL
GASTEIGER

@<TRIPOS>ATOM
      1 N          67.1470    6.3200   53.4910 N.3     1  VAL1       -0.1245
      2 CA         66.3850    6.9180   52.4130 C.3     1  VAL1        0.1561
      3 C          67.0710    6.5480   51.1210 C.2     1  VAL1        0.2260
      4 O          68.2250    6.9220   50.8880 O.2     1  VAL1       -0.2867
      5 CB         66.3260    8.4490   52.5170 C.3     1  VAL1        0.0252
      6 CG1        65.5190    9.0000   51.3630 C.3     1  VAL1        0.0019
      7 CG2        65.7020    8.8690   53.8400 C.3     1  VAL1        0.0019
      8 N          67.0360    6.9720   47.2090 N.3     1  ARG1       -0.1245
      9 CA         66.4990    7.7450   46.1060 C.3     1  ARG1        0.1563
     10 C          66.9360    7.1080   44.7980 C.2     1  ARG1        0.2260
     11 O          68.1260    7.0560   44.4950 O.2     1  ARG1       -0.2867
     12 CB         66.9740    9.2000   46.1820 C.3     1  ARG1        0.0307
     13 CG         66.3330   10.0100   47.3080 C.3     1  ARG1        0.0489
     14 CD         66.4570   11.5080   47.0430 C.3     1  ARG1        0.2205
     15 NE         65.6900   12.3060   48.0020 N.pl3   1  ARG1       -0.0865
     16 CZ         66.0510   12.4960   49.2690 C.cat   1  ARG1        0.5346
     17 NH2        65.3030   13.2300   50.0780 N.pl3   1  ARG1        0.1354
     18 NH1        67.1720   11.9590   49.7260 N.pl3   1  ARG1        0.1354
     19 N          58.0110    4.3860   54.0590 N.3     1  ASP1       -0.1227
     20 CA         57.3860    5.4770   53.3410 C.3     1  ASP1        0.1748
     21 C          57.9180    5.5700   51.9290 C.2     1  ASP1        0.2596
     22 O          58.8000    4.8120   51.5310 O.2     1  ASP1       -0.2718
     23 CB         57.6120    6.7890   54.0920 C.3     1  ASP1        0.0701
     24 CG         56.5110    7.8110   53.8350 C.2     1  ASP1        0.0523
     25 OD2        56.4590    8.8020   54.5860 O.co2   1  ASP1       -0.5491
     26 OD1        55.7020    7.6280   52.8950 O.co2   1  ASP1       -0.5491
     27 N          57.3780    6.5090   51.1700 N.am    2  TYR2       -0.1962
     28 CA         57.7720    6.6650   49.7850 C.3     2  TYR2        0.1771
     29 C          57.1380    7.9240   49.2290 C.2     2  TYR2        0.2619
     30 O          56.1150    8.3940   49.7330 O.2     2  TYR2       -0.2715
     31 CB         57.2930    5.4490   48.9990 C.3     2  TYR2        0.0574
     32 CG         56.0530    4.8490   49.6140 C.ar    2  TYR2       -0.0198
     33 CD2        56.1120    3.6430   50.3060 C.ar    2  TYR2       -0.0009
     34 CD1        54.8410    5.5440   49.6010 C.ar    2  TYR2       -0.0009
     35 CE2        54.9940    3.1440   50.9820 C.ar    2  TYR2        0.0417
     36 CE1        53.7170    5.0510   50.2740 C.ar    2  TYR2        0.0417
     37 CZ         53.8010    3.8550   50.9620 C.ar    2  TYR2        0.1957
     38 OH         52.7030    3.3750   51.6390 O.3     2  TYR2       -0.2866
     39 N          57.7440    8.4540   48.1790 N.am    3  TYR3       -0.1974
     40 CA         57.2580    9.6640   47.5420 C.3     3  TYR3        0.1639
     41 C          57.8310    9.6810   46.1250 C.2     3  TYR3        0.2290
     42 O          58.9850    9.3290   45.9260 O.2     3  TYR3       -0.2864
     43 CB         57.7330   10.8840   48.3400 C.3     3  TYR3        0.0560
     44 CG         57.0410   12.1670   47.9560 C.ar    3  TYR3       -0.0198
     45 CD1        57.5910   13.0190   47.0010 C.ar    3  TYR3       -0.0009
     46 CD2        55.8010   12.5010   48.5050 C.ar    3  TYR3       -0.0009
     47 CE1        56.9200   14.1680   46.5950 C.ar    3  TYR3        0.0417
     48 CE2        55.1160   13.6490   48.1070 C.ar    3  TYR3        0.0417
     49 CZ         55.6820   14.4750   47.1490 C.ar    3  TYR3        0.1957
     50 OH         55.0060   15.5920   46.7220 O.3     3  TYR3       -0.2866
     51 N          53.3660    9.9480   45.6890 N.3     1  ARG1       -0.1245
     52 CA         52.2350    9.0570   45.8870 C.3     1  ARG1        0.1563
     53 C          51.1540    9.4230   44.8730 C.2     1  ARG1        0.2260
     54 O          51.3470   10.3180   44.0520 O.2     1  ARG1       -0.2867
     55 CB         51.7130    9.2050   47.3160 C.3     1  ARG1        0.0307
     56 CG         52.8270    9.2120   48.3570 C.3     1  ARG1        0.0489
     57 CD         52.3100    9.0910   49.7790 C.3     1  ARG1        0.2205
     58 NE         53.3810    9.2460   50.7640 N.pl3   1  ARG1       -0.0865
     59 CZ         53.9050   10.4120   51.1420 C.cat   1  ARG1        0.5346
     60 NH2        54.8800   10.4460   52.0430 N.pl3   1  ARG1        0.1354
     61 NH1        53.4440   11.5490   50.6390 N.pl3   1  ARG1        0.1354
     62 N          61.6820    8.2800   45.9190 N.3     1  ALA1       -0.1245
     63 CA         62.3200    8.0920   47.2090 C.3     1  ALA1        0.1562
     64 C          61.5670    7.0090   47.9520 C.2     1  ALA1        0.2260
     65 O          60.3380    6.9110   47.8550 O.2     1  ALA1       -0.2867
     66 CB         62.2900    9.3910   48.0130 C.3     1  ALA1        0.0290
     67 N          61.7500    5.1880   51.9100 N.3     1  VAL1       -0.1245
     68 CA         62.4070    5.1900   53.2030 C.3     1  VAL1        0.1561
     69 C          62.2220    3.7940   53.7970 C.2     1  VAL1        0.2260
     70 O          61.1410    3.2060   53.7340 O.2     1  VAL1       -0.2867
     71 CB         61.8420    6.2890   54.1610 C.3     1  VAL1        0.0252
     72 CG1        61.2410    7.4230   53.3610 C.3     1  VAL1        0.0019
     73 CG2        60.8460    5.7050   55.1180 C.3     1  VAL1        0.0019
@<TRIPOS>UNITY_ATOM_ATTR
25 1
charge -1
@<TRIPOS>BOND
     1     1     2    1
     2     2     3    1
     3     2     5    1
     4     3     4    2
     5     5     6    1
     6     5     7    1
     7     8     9    1
     8     9    10    1
     9     9    12    1
    10    10    11    2
    11    12    13    1
    12    13    14    1
    13    14    15    1
    14    15    16    2
    15    16    18    1
    16    16    17    1
    17    19    20    1
    18    20    21    1
    19    20    23    1
    20    21    27   am
    21    21    22    2
    22    23    24    1
    23    24    26   ar
    24    24    25   ar
    25    27    28    1
    26    28    31    1
    27    28    29    1
    28    29    39   am
    29    29    30    2
    30    31    32    1
    31    32    34   ar
    32    32    33   ar
    33    33    35   ar
    34    34    36   ar
    35    35    37   ar
    36    36    37   ar
    37    37    38    1
    38    39    40    1
    39    40    41    1
    40    40    43    1
    41    41    42    2
    42    43    44    1
    43    44    45   ar
    44    44    46   ar
    45    45    47   ar
    46    46    48   ar
    47    47    49   ar
    48    48    49   ar
    49    49    50    1
    50    51    52    1
    51    52    53    1
    52    52    55    1
    53    53    54    2
    54    55    56    1
    55    56    57    1
    56    57    58    1
    57    58    59    2
    58    59    61    1
    59    59    60    1
    60    62    63    1
    61    63    64    1
    62    63    66    1
    63    64    65    2
    64    67    68    1
    65    68    69    1
    66    68    71    1
    67    69    70    2
    68    71    72    1
    69    71    73    1
