@<TRIPOS>MOLECULE
./1k7e/protein.pdb
 268 257 0 0 0
SMALL
GASTEIGER

@<TRIPOS>ATOM
      1 N          41.6880   32.7670   16.5320 N.3     1  PRO1       -0.2102
      2 CA         42.9430   33.2590   15.9990 C.3     1  PRO1        0.1504
      3 C          44.0580   32.8650   16.9140 C.2     1  PRO1        0.2576
      4 O          43.7880   32.6940   18.1990 O.2     1  PRO1       -0.2718
      5 CB         42.7330   34.8160   16.0550 C.3     1  PRO1        0.0282
      6 CG         41.8900   34.9610   17.2750 C.3     1  PRO1        0.0208
      7 CD         40.9530   33.7230   17.3490 C.3     1  PRO1        0.0893
      8 N          45.2390   32.7280   16.2940 N.am    2  PHE2       -0.1963
      9 CA         46.4510   32.3960   16.9500 C.3     2  PHE2        0.1771
     10 C          47.4550   33.6320   16.9550 C.2     2  PHE2        0.2619
     11 O          47.5320   34.2440   16.0090 O.2     2  PHE2       -0.2715
     12 CB         47.1410   31.1890   16.3540 C.3     2  PHE2        0.0574
     13 CG         48.6700   31.1600   16.6660 C.ar    2  PHE2       -0.0200
     14 CD1        49.5900   31.9290   15.9350 C.ar    2  PHE2       -0.0042
     15 CD2        49.1540   30.3930   17.6790 C.ar    2  PHE2       -0.0042
     16 CE1        50.9590   31.8620   16.1430 C.ar    2  PHE2       -0.0003
     17 CE2        50.3960   30.2780   17.9180 C.ar    2  PHE2       -0.0003
     18 CZ         51.3630   31.0930   17.2210 C.ar    2  PHE2       -0.0000
     19 N          48.1820   33.9530   18.0440 N.am    3  VAL3       -0.1977
     20 CA         49.3470   34.7920   17.9450 C.3     3  VAL3        0.1596
     21 C          50.3820   34.2950   18.8280 C.2     3  VAL3        0.2287
     22 O          50.1510   33.4740   19.7500 O.2     3  VAL3       -0.2864
     23 CB         49.1040   36.1770   18.4100 C.3     3  VAL3        0.0276
     24 CG1        48.2520   36.9410   17.4420 C.3     3  VAL3        0.0022
     25 CG2        48.2410   36.0870   19.7180 C.3     3  VAL3        0.0022
     26 N          44.4440   31.0800   20.8560 N.3     1  GLU1       -0.1245
     27 CA         45.4480   30.1630   20.6230 C.3     1  GLU1        0.1565
     28 C          46.6990   31.0200   20.6840 C.2     1  GLU1        0.2260
     29 O          46.8260   31.9850   19.9060 O.2     1  GLU1       -0.2867
     30 CB         45.3220   29.5330   19.2530 C.3     1  GLU1        0.0329
     31 CG         45.7290   28.0560   19.3500 C.3     1  GLU1        0.0437
     32 CD         46.4650   27.4400   18.1220 C.2     1  GLU1        0.0504
     33 OE2        46.9080   26.3240   18.1820 O.co2   1  GLU1       -0.5492
     34 OE1        46.6730   28.0020   17.0770 O.co2   1  GLU1       -0.5492
     35 N          51.0380   31.1590   21.1050 N.3     1  GLY1       -0.1225
     36 CA         52.3170   30.4610   21.0920 C.3     1  GLY1        0.1811
     37 C          53.3320   30.9690   22.0920 C.2     1  GLY1        0.2280
     38 O          53.3580   32.2180   22.2980 O.2     1  GLY1       -0.2866
     39 N          57.9120   23.1440   13.3230 N.3     1  ALA1       -0.1231
     40 CA         56.7270   22.9460   12.5550 C.3     1  ALA1        0.1694
     41 C          56.0760   24.3750   12.0140 C.2     1  ALA1        0.2592
     42 O          54.9480   24.4350   11.4510 O.2     1  ALA1       -0.2718
     43 CB         55.7760   22.1840   13.3200 C.3     1  ALA1        0.0304
     44 N          56.7920   25.4870   12.1060 N.am    2  ASP2       -0.1976
     45 CA         56.1210   26.6270   11.6030 C.3     2  ASP2        0.1651
     46 C          56.7220   27.2040   10.3110 C.2     2  ASP2        0.2291
     47 O          58.1000   27.2760   10.1090 O.2     2  ASP2       -0.2864
     48 CB         56.2900   27.7040   12.6650 C.3     2  ASP2        0.0714
     49 CG         55.3540   27.5650   13.8370 C.2     2  ASP2        0.0525
     50 OD1        54.1860   27.9180   13.5520 O.co2   2  ASP2       -0.5491
     51 OD2        55.7290   27.1200   14.9940 O.co2   2  ASP2       -0.5491
     52 N          55.2060   32.8120   11.0840 N.3     1  ILE1       -0.1245
     53 CA         55.2880   32.6210   12.4930 C.3     1  ILE1        0.1561
     54 C          56.7660   32.4520   12.8760 C.2     1  ILE1        0.2260
     55 O          57.1390   32.8430   13.9970 O.2     1  ILE1       -0.2867
     56 CB         54.4190   31.4350   12.7100 C.3     1  ILE1        0.0252
     57 CG1        52.9160   31.9090   12.5680 C.3     1  ILE1        0.0019
     58 CG2        54.5610   30.6600   14.0960 C.3     1  ILE1        0.0019
     59 CD1        51.9880   30.6900   12.9570 C.3     1  ILE1        0.0001
     60 N          50.1630   26.8560   22.2210 N.3     1  LEU1       -0.1245
     61 CA         50.8100   26.0110   21.1410 C.3     1  LEU1        0.1561
     62 C          52.2060   26.0050   21.6040 C.2     1  LEU1        0.2260
     63 O          52.8270   27.0890   21.7260 O.2     1  LEU1       -0.2867
     64 CB         50.8440   26.7820   19.8060 C.3     1  LEU1        0.0270
     65 CG         51.3990   26.0690   18.5690 C.3     1  LEU1        0.0019
     66 CD1        52.9000   26.1930   18.5700 C.3     1  LEU1        0.0001
     67 CD2        51.0920   24.5680   18.7680 C.3     1  LEU1        0.0001
     68 N          56.1950   23.9360   21.9820 N.3     1  TYR1       -0.1241
     69 CA         57.1260   22.9040   21.4100 C.3     1  TYR1        0.1605
     70 C          57.5010   21.9990   22.5920 C.2     1  TYR1        0.2264
     71 O          57.5680   22.5300   23.6430 O.2     1  TYR1       -0.2867
     72 CB         58.3740   23.5500   20.7390 C.3     1  TYR1        0.0534
     73 CG         57.9670   23.9230   19.3690 C.ar    1  TYR1       -0.0201
     74 CD2        57.2840   25.1600   19.0700 C.ar    1  TYR1       -0.0009
     75 CD1        58.1810   23.0840   18.3360 C.ar    1  TYR1       -0.0009
     76 CE2        56.8190   25.4540   17.8110 C.ar    1  TYR1        0.0417
     77 CE1        57.7430   23.4200   16.9380 C.ar    1  TYR1        0.0417
     78 CZ         57.0630   24.5750   16.7140 C.ar    1  TYR1        0.1957
     79 OH         56.7180   24.9160   15.3980 O.3     1  TYR1       -0.2866
     80 N          48.3990   22.4600   23.1230 N.3     1  LEU1       -0.1231
     81 CA         48.8030   21.6520   21.9630 C.3     1  LEU1        0.1693
     82 C          50.2980   21.6260   21.8450 C.2     1  LEU1        0.2592
     83 O          50.9510   22.7420   21.8350 O.2     1  LEU1       -0.2718
     84 CB         48.2280   22.3890   20.7320 C.3     1  LEU1        0.0284
     85 CG         48.1010   21.4430   19.5290 C.3     1  LEU1        0.0019
     86 CD1        47.6990   22.1540   18.1150 C.3     1  LEU1        0.0001
     87 CD2        49.5190   20.9980   19.3320 C.3     1  LEU1        0.0001
     88 N          50.9190   20.4080   21.7920 N.am    2  VAL2       -0.1966
     89 CA         52.4050   20.4300   21.7350 C.3     2  VAL2        0.1727
     90 C          52.7820   19.8940   20.3210 C.2     2  VAL2        0.2616
     91 O          52.6180   18.7150   19.9710 O.2     2  VAL2       -0.2715
     92 CB         53.1480   19.5400   22.7570 C.3     2  VAL2        0.0290
     93 CG1        54.5920   20.0150   22.8880 C.3     2  VAL2        0.0023
     94 CG2        52.4750   19.3860   24.1740 C.3     2  VAL2        0.0023
     95 N          53.3570   20.7770   19.5760 N.am    3  ALA3       -0.1963
     96 CA         53.4440   20.6040   18.1150 C.3     3  ALA3        0.1728
     97 C          54.2620   19.4450   17.7280 C.2     3  ALA3        0.2616
     98 O          53.9780   18.8720   16.6380 O.2     3  ALA3       -0.2715
     99 CB         54.0470   21.7480   17.5250 C.3     3  ALA3        0.0334
    100 N          55.2730   19.0580   18.5800 N.am    4  ASP4       -0.1973
    101 CA         56.2280   18.0310   18.0720 C.3     4  ASP4        0.1651
    102 C          56.0900   16.8240   19.0030 C.2     4  ASP4        0.2291
    103 O          57.0110   16.0340   19.1290 O.2     4  ASP4       -0.2864
    104 CB         57.6300   18.5540   18.0610 C.3     4  ASP4        0.0714
    105 CG         57.9560   19.3900   19.3200 C.2     4  ASP4        0.0525
    106 OD2        57.0510   19.8190   20.1160 O.co2   4  ASP4       -0.5491
    107 OD1        59.0930   19.6400   19.6920 O.co2   4  ASP4       -0.5491
    108 N          46.4650   16.8650   16.8540 N.3     1  ILE1       -0.1245
    109 CA         46.3090   17.2310   15.4700 C.3     1  ILE1        0.1561
    110 C          45.8270   15.9230   14.7920 C.2     1  ILE1        0.2260
    111 O          46.3560   14.8400   15.0560 O.2     1  ILE1       -0.2867
    112 CB         47.6980   17.6780   14.9460 C.3     1  ILE1        0.0252
    113 CG1        48.1010   19.0230   15.5580 C.3     1  ILE1        0.0019
    114 CG2        47.7490   17.7850   13.4190 C.3     1  ILE1        0.0019
    115 CD1        49.1470   19.6370   14.9160 C.3     1  ILE1        0.0001
    116 N          39.2230   20.5980   22.1730 N.3     1  TYR1       -0.1241
    117 CA         38.8100   20.5190   20.7170 C.3     1  TYR1        0.1605
    118 C          39.8640   19.6980   20.0180 C.2     1  TYR1        0.2264
    119 O          40.8450   19.4190   20.6660 O.2     1  TYR1       -0.2867
    120 CB         38.7160   21.8450   19.9960 C.3     1  TYR1        0.0534
    121 CG         40.0460   22.6070   19.8870 C.ar    1  TYR1       -0.0201
    122 CD1        40.9350   22.3900   18.7820 C.ar    1  TYR1       -0.0009
    123 CD2        40.3750   23.6090   20.7870 C.ar    1  TYR1       -0.0009
    124 CE1        42.0600   23.1000   18.6300 C.ar    1  TYR1        0.0417
    125 CE2        41.6060   24.3200   20.6720 C.ar    1  TYR1        0.0417
    126 CZ         42.4130   24.1120   19.6190 C.ar    1  TYR1        0.1957
    127 OH         43.5830   24.7840   19.5130 O.3     1  TYR1       -0.2866
    128 N          42.3520   19.3700   16.6520 N.3     1  TYR1       -0.1241
    129 CA         42.9220   20.2700   15.7030 C.3     1  TYR1        0.1605
    130 C          42.8790   19.5600   14.4040 C.2     1  TYR1        0.2264
    131 O          43.6630   18.5920   14.2440 O.2     1  TYR1       -0.2867
    132 CB         44.3850   20.5490   16.0570 C.3     1  TYR1        0.0534
    133 CG         44.8850   21.7770   15.3710 C.ar    1  TYR1       -0.0201
    134 CD1        45.1770   21.7340   13.9710 C.ar    1  TYR1       -0.0009
    135 CD2        45.0560   22.9490   16.0270 C.ar    1  TYR1       -0.0009
    136 CE1        45.6280   22.8270   13.3200 C.ar    1  TYR1        0.0417
    137 CE2        45.4990   24.1680   15.2970 C.ar    1  TYR1        0.0417
    138 CZ         45.7660   24.0430   13.9660 C.ar    1  TYR1        0.1957
    139 OH         46.2630   25.0070   13.1560 O.3     1  TYR1       -0.2866
    140 N          43.7670   19.1400   10.8770 N.3     1  LEU1       -0.1245
    141 CA         44.6880   19.8240    9.9890 C.3     1  LEU1        0.1561
    142 C          44.1980   19.8340    8.5430 C.2     1  LEU1        0.2260
    143 O          43.7210   18.9130    8.0450 O.2     1  LEU1       -0.2867
    144 CB         46.0720   19.2320   10.1960 C.3     1  LEU1        0.0270
    145 CG         47.3170   19.9110    9.6640 C.3     1  LEU1        0.0019
    146 CD2        47.5450   21.1280   10.3250 C.3     1  LEU1        0.0001
    147 CD1        48.4150   18.7810    9.8670 C.3     1  LEU1        0.0001
    148 N          46.0720   20.1470    5.8490 N.3     1  ARG1       -0.1245
    149 CA         47.1330   19.7520    4.8820 C.3     1  ARG1        0.1563
    150 C          48.4810   19.3700    5.5190 C.2     1  ARG1        0.2260
    151 O          48.7500   19.7110    6.7010 O.2     1  ARG1       -0.2867
    152 CB         47.3730   20.8680    3.8850 C.3     1  ARG1        0.0307
    153 CG         48.1200   21.9660    4.5170 C.3     1  ARG1        0.0489
    154 CD         48.6910   23.0200    3.5340 C.3     1  ARG1        0.2205
    155 NE         48.9450   24.3490    4.1730 N.pl3   1  ARG1       -0.0865
    156 CZ         49.9390   24.6440    5.0620 C.cat   1  ARG1        0.5346
    157 NH1        50.8140   23.6970    5.5240 N.pl3   1  ARG1        0.1354
    158 NH2        49.9900   25.8620    5.5580 N.pl3   1  ARG1        0.1354
    159 N          52.8100   19.8380    5.3050 N.3     1  GLY1       -0.1210
    160 CA         53.6160   21.0720    5.3510 C.3     1  GLY1        0.1956
    161 C          53.5700   21.7280    6.7400 C.2     1  GLY1        0.2612
    162 O          53.1130   21.1400    7.7140 O.2     1  GLY1       -0.2717
    163 N          53.9690   22.9890    6.8390 N.am    2  VAL2       -0.1965
    164 CA         54.0180   23.8150    8.0880 C.3     2  VAL2        0.1727
    165 C          53.0990   24.9710    7.9270 C.2     2  VAL2        0.2617
    166 O          52.6670   25.2370    6.8350 O.2     2  VAL2       -0.2715
    167 CB         55.4160   24.5020    8.2500 C.3     2  VAL2        0.0290
    168 CG2        56.3760   23.3420    8.5920 C.3     2  VAL2        0.0023
    169 CG1        55.8730   25.2770    6.9050 C.3     2  VAL2        0.0023
    170 N          52.8450   25.6500    9.0070 N.am    3  THR3       -0.1937
    171 CA         51.9140   26.7790    9.0680 C.3     3  THR3        0.2028
    172 C          52.2880   27.7150    7.9210 C.2     3  THR3        0.2639
    173 O          53.5670   27.8330    7.7550 O.2     3  THR3       -0.2714
    174 CB         52.0690   27.5290   10.5390 C.3     3  THR3        0.1808
    175 OG1        53.4150   28.0960   10.8410 O.3     3  THR3       -0.2208
    176 CG2        51.5220   26.5380   11.8500 C.3     3  THR3        0.0379
    177 N          51.3060   28.4060    7.2550 N.am    4  GLY4       -0.2011
    178 CA         51.5600   29.1560    5.9840 C.3     4  GLY4        0.1506
    179 C          50.3290   29.9100    5.5570 C.3     4  GLY4        0.2054
    180 O          49.2290   29.8560    6.2780 O.3     4  GLY4       -0.2184
    181 N          39.0800   23.4720   12.3210 N.3     1  GLN1       -0.1231
    182 CA         39.8680   23.2330   11.1310 C.3     1  GLN1        0.1698
    183 C          41.0180   24.2750   11.1090 C.2     1  GLN1        0.2593
    184 O          40.6800   25.4480   11.2960 O.2     1  GLN1       -0.2718
    185 CB         39.0950   23.5630    9.8850 C.3     1  GLN1        0.0381
    186 CG         40.0230   23.0770    8.7290 C.3     1  GLN1        0.0905
    187 CD         39.3680   23.3800    7.4300 C.2     1  GLN1        0.2608
    188 OE1        38.1840   23.2980    7.3840 O.2     1  GLN1       -0.2717
    189 NE2        40.1290   23.7470    6.3810 N.am    1  GLN1       -0.0878
    190 N          42.2850   23.8130   10.8830 N.am    2  GLY2       -0.1942
    191 CA         43.4430   24.6690   10.9180 C.3     2  GLY2        0.2014
    192 C          44.5940   24.6050    9.9060 C.2     2  GLY2        0.2639
    193 O          44.8120   23.5740    9.3130 O.2     2  GLY2       -0.2714
    194 N          45.4030   25.5990    9.7690 N.am    3  PHE3       -0.1959
    195 CA         46.3320   25.6330    8.6610 C.3     3  PHE3        0.1771
    196 C          45.7120   26.2030    7.3880 C.2     3  PHE3        0.2620
    197 O          44.7750   25.6150    6.7700 O.2     3  PHE3       -0.2715
    198 CB         46.9710   24.2900    8.3380 C.3     3  PHE3        0.0574
    199 CG         48.1570   23.9600    9.2470 C.ar    3  PHE3       -0.0200
    200 CD2        48.0740   24.1830   10.6800 C.ar    3  PHE3       -0.0042
    201 CD1        49.3500   23.4220    8.7120 C.ar    3  PHE3       -0.0042
    202 CE2        49.2320   23.8060   11.5640 C.ar    3  PHE3       -0.0003
    203 CE1        50.5140   23.0960    9.5960 C.ar    3  PHE3       -0.0003
    204 CZ         50.4150   23.2540   10.9990 C.ar    3  PHE3       -0.0000
    205 N          46.1740   27.4080    7.0570 N.am    4  GLY4       -0.1940
    206 CA         45.7230   28.0550    5.8400 C.3     4  GLY4        0.2014
    207 C          44.3550   28.6900    5.8420 C.2     4  GLY4        0.2639
    208 O          44.0520   29.0970    4.7240 O.2     4  GLY4       -0.2714
    209 N          43.5720   28.7480    6.9560 N.am    5  ILE5       -0.1963
    210 CA         42.3710   29.5170    6.9530 C.3     5  ILE5        0.1727
    211 C          42.6320   31.0740    6.8970 C.2     5  ILE5        0.2616
    212 O          43.0980   31.6810    7.9370 O.2     5  ILE5       -0.2715
    213 CB         41.8530   29.3750    8.2600 C.3     5  ILE5        0.0290
    214 CG1        41.6870   27.9490    8.5600 C.3     5  ILE5        0.0022
    215 CG2        40.5590   30.0010    8.3710 C.3     5  ILE5        0.0023
    216 CD1        40.9100   27.1280    7.2550 C.3     5  ILE5        0.0001
    217 N          42.3230   31.7890    5.7830 N.am    6  SER6       -0.1950
    218 CA         42.6610   33.2240    5.8800 C.3     6  SER6        0.1924
    219 C          41.6360   34.1660    5.3880 C.2     6  SER6        0.2314
    220 O          41.7580   35.3340    5.3140 O.2     6  SER6       -0.2863
    221 CB         43.9320   33.3800    5.0880 C.3     6  SER6        0.2116
    222 OG         43.5910   32.8330    3.8150 O.3     6  SER6       -0.2180
    223 N          40.5390   27.9640   12.8230 N.3     1  ILE1       -0.1231
    224 CA         41.6280   28.7140   13.4830 C.3     1  ILE1        0.1692
    225 C          42.4090   29.2860   12.4260 C.2     1  ILE1        0.2593
    226 O          42.7300   28.7290   11.4190 O.2     1  ILE1       -0.2718
    227 CB         42.3900   27.6760   14.1860 C.3     1  ILE1        0.0266
    228 CG1        41.6460   27.3960   15.4800 C.3     1  ILE1        0.0019
    229 CG2        43.7190   28.2040   14.5650 C.3     1  ILE1        0.0020
    230 CD1        42.3140   25.8550   16.0800 C.3     1  ILE1        0.0001
    231 N          42.8220   30.4980   12.7020 N.am    2  SER2       -0.1938
    232 CA         43.6350   31.2310   11.7200 C.3     2  SER2        0.2055
    233 C          44.8020   31.8160   12.4610 C.2     2  SER2        0.2644
    234 O          44.6070   32.4600   13.4600 O.2     2  SER2       -0.2714
    235 CB         42.7840   32.3440   11.3460 C.3     2  SER2        0.2130
    236 OG         43.3580   33.0270   10.2740 O.3     2  SER2       -0.2179
    237 N          46.0370   31.5680   12.0640 N.am    3  GLY3       -0.1939
    238 CA         47.1890   32.3020   12.7340 C.3     3  GLY3        0.2014
    239 C          48.0890   33.0690   11.7530 C.2     3  GLY3        0.2640
    240 O          48.3510   34.2740   11.8190 O.2     3  GLY3       -0.2714
    241 N          48.5970   32.3540   10.7790 N.am    4  SER4       -0.1935
    242 CA         49.3760   33.0130    9.8310 C.3     4  SER4        0.2055
    243 C          48.7020   34.2730    9.3910 C.2     4  SER4        0.2643
    244 O          49.3010   35.2380    9.3270 O.2     4  SER4       -0.2714
    245 CB         49.5180   32.0730    8.6060 C.3     4  SER4        0.2130
    246 OG         50.1590   31.0300    9.1450 O.3     4  SER4       -0.2179
    247 N          47.4570   34.2340    8.9730 N.am    5  ALA5       -0.1963
    248 CA         46.8830   35.4430    8.5430 C.3     5  ALA5        0.1728
    249 C          46.8700   36.4000    9.6540 C.2     5  ALA5        0.2616
    250 O          47.0040   37.5430    9.4590 O.2     5  ALA5       -0.2715
    251 CB         45.4480   35.2360    7.9230 C.3     5  ALA5        0.0334
    252 N          46.7260   35.9990   10.8920 N.am    6  ILE6       -0.1977
    253 CA         46.6010   37.0260   11.8740 C.3     6  ILE6        0.1596
    254 C          47.9580   37.5900   11.9540 C.2     6  ILE6        0.2287
    255 O          48.1010   38.8280   11.9890 O.2     6  ILE6       -0.2864
    256 CB         46.3080   36.3560   13.0870 C.3     6  ILE6        0.0276
    257 CG1        44.9650   35.7440   12.9680 C.3     6  ILE6        0.0022
    258 CG2        46.3050   37.3610   14.1880 C.3     6  ILE6        0.0022
    259 CD1        43.7960   36.8170   13.3120 C.3     6  ILE6        0.0001
    260 N          50.3840   37.8040    9.7990 N.3     1  LYS1       -0.1245
    261 CA         50.7150   38.6260    8.6500 C.3     1  LYS1        0.1565
    262 C          50.3900   40.0280    8.9430 C.2     1  LYS1        0.2260
    263 O          51.2040   40.9380    8.6210 O.2     1  LYS1       -0.2867
    264 CB         50.0080   38.1570    7.3750 C.3     1  LYS1        0.0317
    265 CG         50.7560   37.0120    6.7300 C.3     1  LYS1        0.0294
    266 CD         49.9780   36.1460    5.5050 C.2     1  LYS1       -0.0067
    267 CE         50.5240   34.5730    5.2440 C.2     1  LYS1        0.1012
    268 NZ         51.9340   33.7380    5.7630 N.pl3   1  LYS1       -0.1270
@<TRIPOS>UNITY_ATOM_ATTR
33 1
charge -1
50 1
charge -1
106 1
charge -1
@<TRIPOS>BOND
     1     1     2    1
     2     1     7    1
     3     2     5    1
     4     2     3    1
     5     3     8   am
     6     3     4    2
     7     5     6    1
     8     6     7    1
     9     8     9    1
    10     9    12    1
    11     9    10    1
    12    10    11    2
    13    10    19   am
    14    12    13    1
    15    13    14   ar
    16    13    15   ar
    17    14    16   ar
    18    15    17   ar
    19    16    18   ar
    20    17    18   ar
    21    19    20    1
    22    20    23    1
    23    20    21    1
    24    21    22    2
    25    23    24    1
    26    23    25    1
    27    26    27    1
    28    27    30    1
    29    27    28    1
    30    28    29    2
    31    30    31    1
    32    31    32    1
    33    32    34   ar
    34    32    33   ar
    35    35    36    1
    36    36    37    1
    37    37    38    2
    38    39    40    1
    39    40    41    1
    40    40    43    1
    41    41    42    2
    42    41    44   am
    43    44    45    1
    44    45    46    1
    45    45    48    1
    46    46    47    2
    47    48    49    1
    48    49    50   ar
    49    49    51   ar
    50    52    53    1
    51    53    56    1
    52    53    54    1
    53    54    55    2
    54    56    57    1
    55    56    58    1
    56    57    59    1
    57    60    61    1
    58    61    64    1
    59    61    62    1
    60    62    63    2
    61    64    65    1
    62    65    66    1
    63    65    67    1
    64    68    69    1
    65    69    72    1
    66    69    70    1
    67    70    71    2
    68    72    73    1
    69    73    75   ar
    70    73    74   ar
    71    74    76   ar
    72    75    77   ar
    73    76    78   ar
    74    77    78   ar
    75    78    79    1
    76    80    81    1
    77    81    84    1
    78    81    82    1
    79    82    88   am
    80    82    83    2
    81    84    85    1
    82    85    86    1
    83    85    87    1
    84    88    89    1
    85    89    90    1
    86    89    92    1
    87    90    95   am
    88    90    91    2
    89    92    93    1
    90    92    94    1
    91    95    96    1
    92    96    99    1
    93    96    97    1
    94    97    98    2
    95    97   100   am
    96   100   101    1
    97   101   104    1
    98   101   102    1
    99   102   103    2
   100   104   105    1
   101   105   107   ar
   102   105   106   ar
   103   108   109    1
   104   109   110    1
   105   109   112    1
   106   110   111    2
   107   112   114    1
   108   112   113    1
   109   113   115    1
   110   116   117    1
   111   117   120    1
   112   117   118    1
   113   118   119    2
   114   120   121    1
   115   121   122   ar
   116   121   123   ar
   117   122   124   ar
   118   123   125   ar
   119   124   126   ar
   120   125   126   ar
   121   126   127    1
   122   128   129    1
   123   129   130    1
   124   129   132    1
   125   130   131    2
   126   132   133    1
   127   133   134   ar
   128   133   135   ar
   129   134   136   ar
   130   135   137   ar
   131   136   138   ar
   132   137   138   ar
   133   138   139    1
   134   140   141    1
   135   141   142    1
   136   141   144    1
   137   142   143    2
   138   144   145    1
   139   145   147    1
   140   145   146    1
   141   148   149    1
   142   149   152    1
   143   149   150    1
   144   150   151    2
   145   152   153    1
   146   153   154    1
   147   154   155    1
   148   155   156    2
   149   156   157    1
   150   156   158    1
   151   159   160    1
   152   160   161    1
   153   161   163   am
   154   161   162    2
   155   163   164    1
   156   164   165    1
   157   164   167    1
   158   165   166    2
   159   165   170   am
   160   167   169    1
   161   167   168    1
   162   170   171    1
   163   171   172    1
   164   171   174    1
   165   172   177   am
   166   172   173    2
   167   174   175    1
   168   174   176    1
   169   177   178    1
   170   178   179    1
   171   179   180    1
   172   181   182    1
   173   182   185    1
   174   182   183    1
   175   183   190   am
   176   183   184    2
   177   185   186    1
   178   186   187    1
   179   187   189   am
   180   187   188    2
   181   190   191    1
   182   191   192    1
   183   192   193    2
   184   192   194   am
   185   194   195    1
   186   195   196    1
   187   195   198    1
   188   196   197    2
   189   196   205   am
   190   198   199    1
   191   199   201   ar
   192   199   200   ar
   193   200   202   ar
   194   201   203   ar
   195   202   204   ar
   196   203   204   ar
   197   205   206    1
   198   206   207    1
   199   207   208    2
   200   207   209   am
   201   209   210    1
   202   210   211    1
   203   210   213    1
   204   211   217   am
   205   211   212    2
   206   213   215    1
   207   213   214    1
   208   214   216    1
   209   217   218    1
   210   218   221    1
   211   218   219    1
   212   219   220    2
   213   221   222    1
   214   223   224    1
   215   224   225    1
   216   224   227    1
   217   225   226    2
   218   225   231   am
   219   227   229    1
   220   227   228    1
   221   228   230    1
   222   231   232    1
   223   232   235    1
   224   232   233    1
   225   233   237   am
   226   233   234    2
   227   235   236    1
   228   237   238    1
   229   238   239    1
   230   239   241   am
   231   239   240    2
   232   241   242    1
   233   242   245    1
   234   242   243    1
   235   243   247   am
   236   243   244    2
   237   245   246    1
   238   247   248    1
   239   248   251    1
   240   248   249    1
   241   249   250    2
   242   249   252   am
   243   252   253    1
   244   253   254    1
   245   253   256    1
   246   254   255    2
   247   256   257    1
   248   256   258    1
   249   257   259    1
   250   260   261    1
   251   261   264    1
   252   261   262    1
   253   262   263    2
   254   264   265    1
   255   265   266    1
   256   266   267    2
   257   267   268    1
