@<TRIPOS>MOLECULE
./1vps/protein.pdb
 220 219 0 0 0
SMALL
GASTEIGER

@<TRIPOS>ATOM
      1 N         -13.7880  155.2060   30.9560 N.3     1  ILE1       -0.1245
      2 CA        -15.2230  155.4680   31.0000 C.3     1  ILE1        0.1561
      3 C         -15.9290  154.4440   31.8940 C.2     1  ILE1        0.2260
      4 O         -15.8220  153.2330   31.6650 O.2     1  ILE1       -0.2867
      5 CB        -15.8290  155.4460   29.5720 C.3     1  ILE1        0.0252
      6 CG1       -15.2720  156.6270   28.7630 C.3     1  ILE1        0.0019
      7 CG2       -17.3630  155.4910   29.6220 C.3     1  ILE1        0.0019
      8 CD1       -15.7070  156.6470   27.3100 C.3     1  ILE1        0.0001
      9 N         -14.0750  161.5090   33.1140 N.3     1  THR1       -0.1203
     10 CA        -14.4540  160.6400   32.0050 C.3     1  THR1        0.1994
     11 C         -15.3280  161.4410   31.0270 C.2     1  THR1        0.2618
     12 O         -15.7710  160.9170   29.9980 O.2     1  THR1       -0.2717
     13 CB        -15.2700  159.4000   32.4780 C.3     1  THR1        0.1784
     14 OG1       -16.5840  159.8040   32.8970 O.3     1  THR1       -0.2211
     15 CG2       -14.5660  158.6860   33.6240 C.3     1  THR1        0.0376
     16 N         -15.5690  162.7120   31.3470 N.am    2  LEU2       -0.1966
     17 CA        -16.4150  163.5670   30.5160 C.3     2  LEU2        0.1713
     18 C         -15.6570  164.6760   29.7920 C.2     2  LEU2        0.2458
     19 O         -15.1340  165.5900   30.4340 O.2     2  LEU2       -0.2730
     20 CB        -17.5040  164.2120   31.3780 C.3     2  LEU2        0.0310
     21 CG        -18.5030  163.2980   32.0880 C.3     2  LEU2        0.0022
     22 CD2       -19.3350  164.1220   33.0720 C.3     2  LEU2        0.0001
     23 CD1       -19.3970  162.6030   31.0600 C.3     2  LEU2        0.0001
     24 N         -15.5630  164.5990   28.4480 N.am    3  PRO3       -0.2727
     25 CA        -14.8540  165.6470   27.6980 C.3     3  PRO3        0.1402
     26 C         -15.6090  166.9690   27.8590 C.2     3  PRO3        0.2269
     27 O         -16.8450  166.9890   27.8780 O.2     3  PRO3       -0.2865
     28 CB        -14.9300  165.1470   26.2520 C.3     3  PRO3        0.0296
     29 CG        -14.9580  163.6570   26.4100 C.3     3  PRO3        0.0237
     30 CD        -15.9310  163.4810   27.5610 C.3     3  PRO3        0.0939
     31 N         -16.8650  157.3690   17.8690 N.3     1  SER1       -0.1202
     32 CA        -17.5210  158.6630   17.7480 C.3     1  SER1        0.2020
     33 C         -16.5300  159.8190   17.7040 C.2     1  SER1        0.2619
     34 O         -15.5380  159.8390   18.4400 O.2     1  SER1       -0.2717
     35 CB        -18.5390  158.8380   18.8720 C.3     1  SER1        0.2103
     36 OG        -19.5270  157.8280   18.7750 O.3     1  SER1       -0.2182
     37 N         -16.8080  160.7660   16.8170 N.am    2  GLN2       -0.1965
     38 CA        -15.9630  161.9280   16.5950 C.3     2  GLN2        0.1733
     39 C         -16.8200  163.1800   16.6720 C.2     2  GLN2        0.2616
     40 O         -17.9750  163.1860   16.2240 O.2     2  GLN2       -0.2715
     41 CB        -15.3170  161.8220   15.2140 C.3     2  GLN2        0.0408
     42 CG        -14.5010  160.5520   15.0290 C.3     2  GLN2        0.0908
     43 CD        -14.4580  160.0940   13.5880 C.2     2  GLN2        0.2608
     44 OE1       -14.0040  160.8280   12.6990 O.2     2  GLN2       -0.2717
     45 NE2       -14.9050  158.8650   13.3450 N.am    2  GLN2       -0.0878
     46 N         -16.2390  164.2430   17.2090 N.am    3  TYR3       -0.1974
     47 CA        -16.9580  165.4950   17.3900 C.3     3  TYR3        0.1639
     48 C         -15.9650  166.6410   17.2330 C.2     3  TYR3        0.2290
     49 O         -14.9520  166.6910   17.9350 O.2     3  TYR3       -0.2864
     50 CB        -17.5610  165.4930   18.7980 C.3     3  TYR3        0.0560
     51 CG        -18.5570  166.5850   19.0980 C.ar    3  TYR3       -0.0198
     52 CD1       -19.7540  166.6820   18.3920 C.ar    3  TYR3       -0.0009
     53 CD2       -18.3320  167.4770   20.1480 C.ar    3  TYR3       -0.0009
     54 CE1       -20.7040  167.6370   18.7270 C.ar    3  TYR3        0.0417
     55 CE2       -19.2740  168.4310   20.4930 C.ar    3  TYR3        0.0417
     56 CZ        -20.4560  168.5080   19.7800 C.ar    3  TYR3        0.1957
     57 OH        -21.3790  169.4800   20.1090 O.3     3  TYR3       -0.2866
     58 N         -15.8820  170.8920   16.8450 N.3     1  VAL1       -0.1245
     59 CA        -16.5710  172.1850   16.8520 C.3     1  VAL1        0.1561
     60 C         -15.5730  173.2730   17.2140 C.2     1  VAL1        0.2260
     61 O         -14.6980  173.0600   18.0580 O.2     1  VAL1       -0.2867
     62 CB        -17.6950  172.2770   17.9260 C.3     1  VAL1        0.0252
     63 CG1       -18.5600  173.5150   17.6630 C.3     1  VAL1        0.0019
     64 CG2       -18.5430  171.0150   17.9680 C.3     1  VAL1        0.0019
     65 N         -28.8700  170.0810   26.6300 N.3     1  LEU1       -0.1231
     66 CA        -29.7130  168.9910   26.1320 C.3     1  LEU1        0.1693
     67 C         -28.9170  167.7270   26.4330 C.2     1  LEU1        0.2592
     68 O         -27.7320  167.6150   26.0720 O.2     1  LEU1       -0.2718
     69 CB        -30.0030  169.1270   24.6220 C.3     1  LEU1        0.0284
     70 CG        -30.9790  168.1220   23.9780 C.3     1  LEU1        0.0019
     71 CD1       -31.6100  168.7340   22.7520 C.3     1  LEU1        0.0001
     72 CD2       -30.2970  166.7940   23.6280 C.3     1  LEU1        0.0001
     73 N         -29.5530  166.7840   27.1160 N.am    2  VAL2       -0.1966
     74 CA        -28.8790  165.5510   27.4940 C.3     2  VAL2        0.1727
     75 C         -29.5930  164.2930   27.0160 C.2     2  VAL2        0.2616
     76 O         -30.7400  164.3400   26.5750 O.2     2  VAL2       -0.2715
     77 CB        -28.7170  165.4640   29.0370 C.3     2  VAL2        0.0290
     78 CG1       -27.8480  166.6220   29.5490 C.3     2  VAL2        0.0023
     79 CG2       -30.0960  165.4750   29.7250 C.3     2  VAL2        0.0023
     80 N         -28.8830  163.1740   27.0810 N.am    3  THR3       -0.1951
     81 CA        -29.4420  161.8830   26.7100 C.3     3  THR3        0.1897
     82 C         -30.4290  161.4560   27.8010 C.2     3  THR3        0.2313
     83 O         -31.5370  160.9950   27.5080 O.2     3  THR3       -0.2863
     84 CB        -28.3180  160.8050   26.5930 C.3     3  THR3        0.1794
     85 OG1       -27.6610  160.9330   25.3300 O.3     3  THR3       -0.2208
     86 CG2       -28.8660  159.3950   26.7340 C.3     3  THR3        0.0378
     87 N         -24.8100  163.6780   37.5020 N.3     1  TYR1       -0.1241
     88 CA        -23.5080  164.3180   37.3460 C.3     1  TYR1        0.1605
     89 C         -23.0320  164.8250   38.7040 C.2     1  TYR1        0.2264
     90 O         -23.8460  165.1860   39.5570 O.2     1  TYR1       -0.2867
     91 CB        -23.6070  165.5050   36.3810 C.3     1  TYR1        0.0534
     92 CG        -23.9590  165.1270   34.9590 C.ar    1  TYR1       -0.0201
     93 CD1       -23.0440  164.4440   34.1520 C.ar    1  TYR1       -0.0009
     94 CD2       -25.1990  165.4580   34.4150 C.ar    1  TYR1       -0.0009
     95 CE1       -23.3540  164.1000   32.8340 C.ar    1  TYR1        0.0417
     96 CE2       -25.5250  165.1230   33.0990 C.ar    1  TYR1        0.0417
     97 CZ        -24.5950  164.4430   32.3150 C.ar    1  TYR1        0.1957
     98 OH        -24.9010  164.1160   31.0150 O.3     1  TYR1       -0.2866
     99 N         -19.3790  168.4160   26.9320 N.3     1  VAL1       -0.1231
    100 CA        -19.9050  168.5030   25.5660 C.3     1  VAL1        0.1692
    101 C         -21.1310  167.6240   25.3380 C.2     1  VAL1        0.2592
    102 O         -21.8740  167.8240   24.3760 O.2     1  VAL1       -0.2718
    103 CB        -18.8190  168.2250   24.4760 C.3     1  VAL1        0.0266
    104 CG1       -17.6890  169.2540   24.5830 C.3     1  VAL1        0.0020
    105 CG2       -18.2750  166.8060   24.5940 C.3     1  VAL1        0.0020
    106 N         -21.3630  166.6580   26.2210 N.am    2  GLU2       -0.1966
    107 CA        -22.5490  165.8210   26.0740 C.3     2  GLU2        0.1731
    108 C         -23.7690  166.5300   26.6880 C.2     2  GLU2        0.2616
    109 O         -24.8980  166.0340   26.6090 O.2     2  GLU2       -0.2715
    110 CB        -22.3490  164.4320   26.7030 C.3     2  GLU2        0.0370
    111 CG        -22.2180  164.4090   28.2270 C.3     2  GLU2        0.0440
    112 CD        -22.2810  162.9950   28.7970 C.2     2  GLU2        0.0504
    113 OE1       -21.5170  162.1170   28.3320 O.co2   2  GLU2       -0.5492
    114 OE2       -23.1080  162.7590   29.7050 O.co2   2  GLU2       -0.5492
    115 N         -23.5430  167.7090   27.2620 N.am    3  ILE3       -0.1963
    116 CA        -24.6190  168.4790   27.8820 C.3     3  ILE3        0.1727
    117 C         -24.8740  169.8210   27.1960 C.2     3  ILE3        0.2616
    118 O         -26.0170  170.1810   26.9290 O.2     3  ILE3       -0.2715
    119 CB        -24.2940  168.7970   29.3760 C.3     3  ILE3        0.0290
    120 CG1       -24.1170  167.5070   30.1840 C.3     3  ILE3        0.0022
    121 CG2       -25.3970  169.6780   29.9990 C.3     3  ILE3        0.0023
    122 CD1       -23.7480  167.7580   31.6470 C.3     3  ILE3        0.0001
    123 N         -23.7960  170.5430   26.9090 N.am    4  TRP4       -0.1960
    124 CA        -23.8660  171.8840   26.3360 C.3     4  TRP4        0.1768
    125 C         -23.5530  172.0130   24.8550 C.2     4  TRP4        0.2619
    126 O         -22.4420  171.7090   24.4170 O.2     4  TRP4       -0.2715
    127 CB        -22.9400  172.7970   27.1350 C.3     4  TRP4        0.0551
    128 CG        -23.2790  172.8380   28.5960 C.2     4  TRP4       -0.0165
    129 CD1       -22.5530  172.3040   29.6230 C.3     4  TRP4        0.1477
    130 CD2       -24.4100  173.4860   29.1960 C.ar    4  TRP4        0.0113
    131 NE1       -23.1540  172.5880   30.8260 N.2     4  TRP4       -0.2659
    132 CE2       -24.2950  173.3130   30.5950 C.ar    4  TRP4        0.0758
    133 CE3       -25.5070  174.1990   28.6870 C.ar    4  TRP4        0.0009
    134 CZ2       -25.2380  173.8320   31.4970 C.ar    4  TRP4        0.0187
    135 CZ3       -26.4480  174.7150   29.5810 C.ar    4  TRP4        0.0001
    136 CH2       -26.3050  174.5280   30.9710 C.ar    4  TRP4        0.0015
    137 N         -24.5020  172.5870   24.1180 N.am    5  HIS5       -0.1973
    138 CA        -24.3890  172.7580   22.6710 C.3     5  HIS5        0.1652
    139 C         -24.5040  174.2240   22.2810 C.2     5  HIS5        0.2291
    140 O         -25.0690  175.0170   23.0280 O.2     5  HIS5       -0.2864
    141 CB        -25.5070  171.9570   22.0050 C.3     5  HIS5        0.0731
    142 CG        -25.7460  170.6380   22.6660 C.2     5  HIS5        0.0652
    143 ND1       -24.8770  169.5760   22.5430 N.2     5  HIS5       -0.2310
    144 CD2       -26.6920  170.2460   23.5580 C.3     5  HIS5        0.1683
    145 CE1       -25.2660  168.5940   23.3330 C.2     5  HIS5        0.1939
    146 NE2       -26.3640  168.9780   23.9600 N.2     5  HIS5       -0.2440
    147 N         -19.4820  169.4720   13.6060 N.3     1  ASN1       -0.1225
    148 CA        -19.8720  168.2580   12.9090 C.3     1  ASN1        0.1785
    149 C         -19.6810  167.0570   13.8270 C.2     1  ASN1        0.2597
    150 O         -18.7960  167.0380   14.6860 O.2     1  ASN1       -0.2718
    151 CB        -19.1260  168.0870   11.5810 C.3     1  ASN1        0.1169
    152 CG        -17.6380  168.1130   11.7450 C.2     1  ASN1        0.2627
    153 OD1       -17.0310  167.1090   12.1260 O.2     1  ASN1       -0.2716
    154 ND2       -17.0240  169.2540   11.4390 N.am    1  ASN1       -0.0877
    155 N         -20.5490  166.0730   13.6520 N.am    2  TYR2       -0.1962
    156 CA        -20.5450  164.8790   14.4700 C.3     2  TYR2        0.1771
    157 C         -20.7020  163.6200   13.6230 C.2     2  TYR2        0.2620
    158 O         -21.4240  163.6170   12.6120 O.2     2  TYR2       -0.2715
    159 CB        -21.7020  164.9730   15.4800 C.3     2  TYR2        0.0574
    160 CG        -22.0850  163.6640   16.1380 C.ar    2  TYR2       -0.0198
    161 CD2       -21.4070  163.2080   17.2600 C.ar    2  TYR2       -0.0009
    162 CD1       -23.1160  162.8720   15.6200 C.ar    2  TYR2       -0.0009
    163 CE2       -21.7370  161.9980   17.8590 C.ar    2  TYR2        0.0417
    164 CE1       -23.4530  161.6540   16.2080 C.ar    2  TYR2        0.0417
    165 CZ        -22.7550  161.2260   17.3310 C.ar    2  TYR2        0.1957
    166 OH        -23.0610  160.0360   17.9530 O.3     2  TYR2       -0.2866
    167 N         -19.9750  162.5770   14.0170 N.am    3  THR3       -0.1937
    168 CA        -20.0370  161.2620   13.3770 C.3     3  THR3        0.2028
    169 C         -20.0280  160.2660   14.5350 C.2     3  THR3        0.2642
    170 O         -19.1150  160.2860   15.3560 O.2     3  THR3       -0.2714
    171 CB        -18.8310  161.0030   12.4370 C.3     3  THR3        0.1808
    172 OG1       -18.9550  161.8290   11.2690 O.3     3  THR3       -0.2208
    173 CG2       -18.7890  159.5320   12.0050 C.3     3  THR3        0.0379
    174 N         -21.0820  159.4580   14.6350 N.am    4  GLY4       -0.1954
    175 CA        -21.1930  158.4870   15.7130 C.3     4  GLY4        0.1869
    176 C         -20.6020  157.1150   15.4480 C.2     4  GLY4        0.2309
    177 O         -19.6640  156.9720   14.6540 O.2     4  GLY4       -0.2863
    178 N         -13.7520  171.8510   20.6440 N.3     1  VAL1       -0.1245
    179 CA        -13.7330  170.4940   21.1650 C.3     1  VAL1        0.1561
    180 C         -13.4360  169.6330   19.9370 C.2     1  VAL1        0.2260
    181 O         -14.0390  169.8300   18.8750 O.2     1  VAL1       -0.2867
    182 CB        -15.0640  170.0750   21.8420 C.3     1  VAL1        0.0252
    183 CG1       -16.2570  170.3750   20.9560 C.3     1  VAL1        0.0019
    184 CG2       -15.0130  168.5910   22.1900 C.3     1  VAL1        0.0019
    185 N         -12.8330  165.6780   19.4280 N.3     1  ILE1       -0.1245
    186 CA        -12.7820  164.2780   19.8360 C.3     1  ILE1        0.1561
    187 C         -12.5300  163.3880   18.6130 C.2     1  ILE1        0.2260
    188 O         -13.2520  163.4770   17.6180 O.2     1  ILE1       -0.2867
    189 CB        -14.1140  163.8790   20.5190 C.3     1  ILE1        0.0252
    190 CG1       -14.2860  164.6770   21.8150 C.3     1  ILE1        0.0019
    191 CG2       -14.1670  162.3780   20.7880 C.3     1  ILE1        0.0019
    192 CD1       -15.6310  164.4670   22.4910 C.3     1  ILE1        0.0001
    193 N         -12.1140  156.7460   20.6380 N.3     1  TRP1       -0.1241
    194 CA        -11.6000  156.1060   21.8490 C.3     1  TRP1        0.1602
    195 C         -10.5200  155.0880   21.5450 C.2     1  TRP1        0.2264
    196 O         -10.4580  154.5380   20.4410 O.2     1  TRP1       -0.2867
    197 CB        -12.6850  155.2600   22.5440 C.3     1  TRP1        0.0510
    198 CG        -13.9860  155.8980   22.8180 C.2     1  TRP1       -0.0168
    199 CD1       -14.2950  156.7080   23.8750 C.3     1  TRP1        0.1477
    200 CD2       -15.1970  155.7360   22.0640 C.ar    1  TRP1        0.0113
    201 NE1       -15.6240  157.0560   23.8270 N.2     1  TRP1       -0.2659
    202 CE2       -16.2030  156.4790   22.7270 C.ar    1  TRP1        0.0758
    203 CE3       -15.5330  155.0330   20.8960 C.ar    1  TRP1        0.0009
    204 CZ2       -17.5270  156.5440   22.2570 C.ar    1  TRP1        0.0187
    205 CZ3       -16.8530  155.0960   20.4300 C.ar    1  TRP1        0.0001
    206 CH2       -17.8310  155.8480   21.1120 C.ar    1  TRP1        0.0015
    207 N         -11.3780  158.3810   25.9070 N.3     1  TRP1       -0.1241
    208 CA        -11.5750  159.3730   24.8440 C.3     1  TRP1        0.1602
    209 C         -10.2210  159.9590   24.4400 C.2     1  TRP1        0.2264
    210 O          -9.3440  160.1240   25.2890 O.2     1  TRP1       -0.2867
    211 CB        -12.4220  160.5550   25.3450 C.3     1  TRP1        0.0510
    212 CG        -13.8620  160.2740   25.6510 C.2     1  TRP1       -0.0168
    213 CD1       -14.4250  160.1680   26.8920 C.3     1  TRP1        0.1477
    214 CD2       -14.9420  160.1710   24.7100 C.ar    1  TRP1        0.0113
    215 NE1       -15.7850  160.0230   26.7850 N.2     1  TRP1       -0.2659
    216 CE2       -16.1330  160.0220   25.4590 C.ar    1  TRP1        0.0758
    217 CE3       -15.0180  160.1900   23.3100 C.ar    1  TRP1        0.0009
    218 CZ2       -17.3900  159.8960   24.8550 C.ar    1  TRP1        0.0187
    219 CZ3       -16.2730  160.0630   22.7050 C.ar    1  TRP1        0.0001
    220 CH2       -17.4420  159.9190   23.4820 C.ar    1  TRP1        0.0015
@<TRIPOS>UNITY_ATOM_ATTR
113 1
charge -1
@<TRIPOS>BOND
     1     1     2    1
     2     2     5    1
     3     2     3    1
     4     3     4    2
     5     5     6    1
     6     5     7    1
     7     6     8    1
     8     9    10    1
     9    10    11    1
    10    10    13    1
    11    11    12    2
    12    11    16   am
    13    13    14    1
    14    13    15    1
    15    16    17    1
    16    17    18    1
    17    17    20    1
    18    18    24   am
    19    18    19    2
    20    20    21    1
    21    21    23    1
    22    21    22    1
    23    24    30    1
    24    24    25    1
    25    25    28    1
    26    25    26    1
    27    26    27    2
    28    28    29    1
    29    29    30    1
    30    31    32    1
    31    32    33    1
    32    32    35    1
    33    33    37   am
    34    33    34    2
    35    35    36    1
    36    37    38    1
    37    38    41    1
    38    38    39    1
    39    39    40    2
    40    39    46   am
    41    41    42    1
    42    42    43    1
    43    43    44    2
    44    43    45   am
    45    46    47    1
    46    47    48    1
    47    47    50    1
    48    48    49    2
    49    50    51    1
    50    51    52   ar
    51    51    53   ar
    52    52    54   ar
    53    53    55   ar
    54    54    56   ar
    55    55    56   ar
    56    56    57    1
    57    58    59    1
    58    59    60    1
    59    59    62    1
    60    60    61    2
    61    62    63    1
    62    62    64    1
    63    65    66    1
    64    66    69    1
    65    66    67    1
    66    67    68    2
    67    67    73   am
    68    69    70    1
    69    70    71    1
    70    70    72    1
    71    73    74    1
    72    74    75    1
    73    74    77    1
    74    75    76    2
    75    75    80   am
    76    77    78    1
    77    77    79    1
    78    80    81    1
    79    81    84    1
    80    81    82    1
    81    82    83    2
    82    84    85    1
    83    84    86    1
    84    87    88    1
    85    88    91    1
    86    88    89    1
    87    89    90    2
    88    91    92    1
    89    92    93   ar
    90    92    94   ar
    91    93    95   ar
    92    94    96   ar
    93    95    97   ar
    94    96    97   ar
    95    97    98    1
    96    99   100    1
    97   100   103    1
    98   100   101    1
    99   101   102    2
   100   101   106   am
   101   103   104    1
   102   103   105    1
   103   106   107    1
   104   107   108    1
   105   107   110    1
   106   108   109    2
   107   108   115   am
   108   110   111    1
   109   111   112    1
   110   112   113   ar
   111   112   114   ar
   112   115   116    1
   113   116   117    1
   114   116   119    1
   115   117   123   am
   116   117   118    2
   117   119   121    1
   118   119   120    1
   119   120   122    1
   120   123   124    1
   121   124   125    1
   122   124   127    1
   123   125   137   am
   124   125   126    2
   125   127   128    1
   126   128   130    2
   127   128   129    1
   128   129   131    1
   129   130   133   ar
   130   130   132   ar
   131   131   132    2
   132   132   134   ar
   133   133   135   ar
   134   134   136   ar
   135   135   136   ar
   136   137   138    1
   137   138   141    1
   138   138   139    1
   139   139   140    2
   140   141   142    1
   141   142   143    2
   142   142   144    1
   143   143   145    1
   144   144   146    1
   145   145   146    2
   146   147   148    1
   147   148   151    1
   148   148   149    1
   149   149   155   am
   150   149   150    2
   151   151   152    1
   152   152   154   am
   153   152   153    2
   154   155   156    1
   155   156   157    1
   156   156   159    1
   157   157   158    2
   158   157   167   am
   159   159   160    1
   160   160   162   ar
   161   160   161   ar
   162   161   163   ar
   163   162   164   ar
   164   163   165   ar
   165   164   165   ar
   166   165   166    1
   167   167   168    1
   168   168   171    1
   169   168   169    1
   170   169   174   am
   171   169   170    2
   172   171   172    1
   173   171   173    1
   174   174   175    1
   175   175   176    1
   176   176   177    2
   177   178   179    1
   178   179   180    1
   179   179   182    1
   180   180   181    2
   181   182   183    1
   182   182   184    1
   183   185   186    1
   184   186   187    1
   185   186   189    1
   186   187   188    2
   187   189   191    1
   188   189   190    1
   189   190   192    1
   190   193   194    1
   191   194   195    1
   192   194   197    1
   193   195   196    2
   194   197   198    1
   195   198   200    2
   196   198   199    1
   197   199   201    1
   198   200   203   ar
   199   200   202   ar
   200   201   202    2
   201   202   204   ar
   202   203   205   ar
   203   204   206   ar
   204   205   206   ar
   205   207   208    1
   206   208   209    1
   207   208   211    1
   208   209   210    2
   209   211   212    1
   210   212   214    2
   211   212   213    1
   212   213   215    1
   213   214   217   ar
   214   214   216   ar
   215   215   216    2
   216   216   218   ar
   217   217   219   ar
   218   218   220   ar
   219   219   220   ar
