@<TRIPOS>MOLECULE
./2dtt/protein.pdb
 80 78 0 0 0
SMALL
GASTEIGER

@<TRIPOS>ATOM
      1 N          -0.7520   -3.4870   58.4390 N.3     1  ARG1       -0.1231
      2 CA         -2.1000   -2.9990   58.1810 C.3     1  ARG1        0.1694
      3 C          -2.9710   -3.1730   59.4100 C.2     1  ARG1        0.2592
      4 O          -2.9230   -4.2040   60.0840 O.2     1  ARG1       -0.2718
      5 CB         -2.7440   -3.7490   57.0080 C.3     1  ARG1        0.0321
      6 CG         -2.3240   -3.2720   55.6280 C.3     1  ARG1        0.0489
      7 CD         -2.9950   -4.0980   54.5460 C.3     1  ARG1        0.2205
      8 NE         -2.6400   -3.6460   53.2030 N.pl3   1  ARG1       -0.0865
      9 CZ         -2.8770   -4.3410   52.0930 C.cat   1  ARG1        0.5346
     10 NH2        -3.4720   -5.5260   52.1600 N.pl3   1  ARG1        0.1354
     11 NH1        -2.5160   -3.8530   50.9150 N.pl3   1  ARG1        0.1354
     12 N          -3.7720   -2.1560   59.6920 N.am    2  THR2       -0.1953
     13 CA         -4.6680   -2.1980   60.8300 C.3     2  THR2        0.1897
     14 C          -5.8910   -1.3550   60.5140 C.2     2  THR2        0.2313
     15 O          -5.9630   -0.7190   59.4610 O.2     2  THR2       -0.2863
     16 CB         -3.9890   -1.6520   62.0930 C.3     2  THR2        0.1794
     17 OG1        -4.7500   -2.0400   63.2420 O.3     2  THR2       -0.2208
     18 CG2        -3.9030   -0.1280   62.0420 C.3     2  THR2        0.0378
     19 N          -9.0540    2.1570   57.4000 N.3     1  PHE1       -0.1227
     20 CA         -8.0170    1.1730   57.1330 C.3     1  PHE1        0.1736
     21 C          -6.6950    1.9220   57.0110 C.2     1  PHE1        0.2595
     22 O          -6.5430    2.8050   56.1700 O.2     1  PHE1       -0.2718
     23 CB         -8.3470    0.4120   55.8410 C.3     1  PHE1        0.0547
     24 CG         -9.6260   -0.3770   55.9230 C.ar    1  PHE1       -0.0202
     25 CD2        -9.6860   -1.5490   56.6680 C.ar    1  PHE1       -0.0042
     26 CD1       -10.7890    0.0880   55.3130 C.ar    1  PHE1       -0.0042
     27 CE2       -10.8850   -2.2480   56.8100 C.ar    1  PHE1       -0.0003
     28 CE1       -11.9960   -0.6010   55.4490 C.ar    1  PHE1       -0.0003
     29 CZ        -12.0440   -1.7710   56.1990 C.ar    1  PHE1       -0.0000
     30 N          -5.7480    1.5670   57.8690 N.am    2  LEU2       -0.1966
     31 CA         -4.4460    2.2140   57.8910 C.3     2  LEU2        0.1728
     32 C          -3.3210    1.2960   57.4290 C.2     2  LEU2        0.2616
     33 O          -3.2170    0.1530   57.8670 O.2     2  LEU2       -0.2715
     34 CB         -4.1450    2.7070   59.3150 C.3     2  LEU2        0.0311
     35 CG         -2.7900    3.3720   59.5600 C.3     2  LEU2        0.0022
     36 CD1        -2.7310    4.7030   58.8200 C.3     2  LEU2        0.0001
     37 CD2        -2.5880    3.5850   61.0500 C.3     2  LEU2        0.0001
     38 N          -2.4850    1.8050   56.5340 N.am    3  GLU3       -0.1977
     39 CA         -1.3450    1.0440   56.0480 C.3     3  GLU3        0.1600
     40 C          -0.0950    1.8540   56.3460 C.2     3  GLU3        0.2287
     41 O           0.0270    3.0100   55.9260 O.2     3  GLU3       -0.2864
     42 CB         -1.4390    0.7820   54.5470 C.3     3  GLU3        0.0356
     43 CG         -0.2550   -0.0080   54.0230 C.3     3  GLU3        0.0439
     44 CD         -0.3260   -0.2620   52.5330 C.2     3  GLU3        0.0504
     45 OE2        -1.2500   -0.9830   52.0990 O.co2   3  GLU3       -0.5492
     46 OE1         0.5410    0.2640   51.8020 O.co2   3  GLU3       -0.5492
     47 N          -0.8800    5.2330   54.3970 N.3     1  VAL1       -0.1245
     48 CA         -2.0450    5.2400   53.5280 C.3     1  VAL1        0.1561
     49 C          -3.2770    5.0650   54.4090 C.2     1  VAL1        0.2260
     50 O          -3.4420    4.0340   55.0630 O.2     1  VAL1       -0.2867
     51 CB         -1.9810    4.0970   52.4890 C.3     1  VAL1        0.0252
     52 CG1        -3.1030    4.2640   51.4770 C.3     1  VAL1        0.0019
     53 CG2        -0.6220    4.1010   51.7830 C.3     1  VAL1        0.0019
     54 N          -7.3610    4.9220   54.5550 N.3     1  TRP1       -0.1241
     55 CA         -8.5990    4.7670   53.8110 C.3     1  TRP1        0.1602
     56 C          -9.8190    5.0400   54.6650 C.2     1  TRP1        0.2264
     57 O          -9.9150    4.5700   55.7970 O.2     1  TRP1       -0.2867
     58 CB         -8.7190    3.3500   53.2480 C.3     1  TRP1        0.0510
     59 CG         -7.6600    3.0170   52.2680 C.2     1  TRP1       -0.0168
     60 CD1        -6.4250    2.4980   52.5360 C.3     1  TRP1        0.1477
     61 CD2        -7.7140    3.2210   50.8550 C.ar    1  TRP1        0.0113
     62 NE1        -5.7070    2.3660   51.3750 N.2     1  TRP1       -0.2659
     63 CE2        -6.4720    2.8040   50.3260 C.ar    1  TRP1        0.0758
     64 CE3        -8.6910    3.7200   49.9820 C.ar    1  TRP1        0.0009
     65 CZ2        -6.1790    2.8680   48.9610 C.ar    1  TRP1        0.0187
     66 CZ3        -8.4000    3.7850   48.6220 C.ar    1  TRP1        0.0001
     67 CH2        -7.1510    3.3600   48.1270 C.ar    1  TRP1        0.0015
     68 N         -13.0570    3.9400   54.6200 N.3     1  GLY1       -0.1210
     69 CA        -13.8590    2.9360   53.9580 C.3     1  GLY1        0.1956
     70 C         -12.8630    2.3250   52.9880 C.2     1  GLY1        0.2611
     71 O         -11.6540    2.4560   53.1870 O.2     1  GLY1       -0.2717
     72 N         -13.3380    1.6780   51.9340 N.am    2  LYS2       -0.1979
     73 CA        -12.4270    1.0650   50.9750 C.3     2  LYS2        0.1596
     74 C         -12.3230    1.8530   49.6730 C.2     2  LYS2        0.2287
     75 O         -11.4290    1.6020   48.8620 O.2     2  LYS2       -0.2864
     76 CB        -12.8860   -0.3590   50.6520 C.3     2  LYS2        0.0298
     77 CG        -12.7030   -1.3640   51.7680 C.3     2  LYS2        0.0038
     78 CD        -13.2410   -2.7240   51.3390 C.3     2  LYS2        0.0206
     79 CE        -12.8630   -3.8160   52.3250 C.3     2  LYS2        0.1093
     80 NZ        -13.3100   -3.4970   53.7060 N.3     2  LYS2       -0.1314
@<TRIPOS>UNITY_ATOM_ATTR
45 1
charge -1
@<TRIPOS>BOND
     1     1     2    1
     2     2     5    1
     3     2     3    1
     4     3    12   am
     5     3     4    2
     6     5     6    1
     7     6     7    1
     8     7     8    1
     9     8     9    2
    10     9    11    1
    11     9    10    1
    12    12    13    1
    13    13    14    1
    14    13    16    1
    15    14    15    2
    16    16    18    1
    17    16    17    1
    18    19    20    1
    19    20    23    1
    20    20    21    1
    21    21    22    2
    22    21    30   am
    23    23    24    1
    24    24    26   ar
    25    24    25   ar
    26    25    27   ar
    27    26    28   ar
    28    27    29   ar
    29    28    29   ar
    30    30    31    1
    31    31    32    1
    32    31    34    1
    33    32    38   am
    34    32    33    2
    35    34    35    1
    36    35    36    1
    37    35    37    1
    38    38    39    1
    39    39    42    1
    40    39    40    1
    41    40    41    2
    42    42    43    1
    43    43    44    1
    44    44    46   ar
    45    44    45   ar
    46    47    48    1
    47    48    51    1
    48    48    49    1
    49    49    50    2
    50    51    52    1
    51    51    53    1
    52    54    55    1
    53    55    58    1
    54    55    56    1
    55    56    57    2
    56    58    59    1
    57    59    61    2
    58    59    60    1
    59    60    62    1
    60    61    64   ar
    61    61    63   ar
    62    62    63    2
    63    63    65   ar
    64    64    66   ar
    65    65    67   ar
    66    66    67   ar
    67    68    69    1
    68    69    70    1
    69    70    72   am
    70    70    71    2
    71    72    73    1
    72    73    74    1
    73    73    76    1
    74    74    75    2
    75    76    77    1
    76    77    78    1
    77    78    79    1
    78    79    80    1
