@<TRIPOS>MOLECULE
./3i8x/protein.pdb
 235 228 0 0 0
SMALL
GASTEIGER

@<TRIPOS>ATOM
      1 N          25.1370   -8.4510   75.0850 N.3     1  LEU1       -0.1245
      2 CA         25.5850   -9.7970   74.7490 C.3     1  LEU1        0.1561
      3 C          24.4450  -10.6790   74.3410 C.2     1  LEU1        0.2260
      4 O          24.5970  -11.4710   73.4220 O.2     1  LEU1       -0.2867
      5 CB         26.3550  -10.4580   75.9040 C.3     1  LEU1        0.0270
      6 CG         27.8830  -10.3900   75.7250 C.3     1  LEU1        0.0019
      7 CD1        28.3570   -8.9680   75.2760 C.3     1  LEU1        0.0001
      8 CD2        28.6090  -10.8860   77.0310 C.3     1  LEU1        0.0001
      9 N          23.5240   -9.7470   70.8060 N.3     1  LEU1       -0.1231
     10 CA         24.5860  -10.2190   69.9230 C.3     1  LEU1        0.1693
     11 C          24.5590  -11.7410   69.7650 C.2     1  LEU1        0.2592
     12 O          24.8410  -12.2340   68.6820 O.2     1  LEU1       -0.2718
     13 CB         25.9870   -9.7590   70.4190 C.3     1  LEU1        0.0284
     14 CG         26.1730   -8.2570   70.4250 C.3     1  LEU1        0.0019
     15 CD2        27.5480   -7.9180   70.9620 C.3     1  LEU1        0.0001
     16 CD1        25.9390   -7.7460   69.0340 C.3     1  LEU1        0.0001
     17 N          24.2260  -12.4820   70.8120 N.am    2  GLU2       -0.1966
     18 CA         24.1140  -13.9380   70.6630 C.3     2  GLU2        0.1731
     19 C          22.9020  -14.3820   69.8140 C.2     2  GLU2        0.2616
     20 O          22.9270  -15.4400   69.1900 O.2     2  GLU2       -0.2715
     21 CB         24.0570  -14.6140   72.0180 C.3     2  GLU2        0.0370
     22 CG         25.3100  -14.3950   72.8360 C.3     2  GLU2        0.0440
     23 CD         25.4880  -15.4330   73.8910 C.2     2  GLU2        0.0504
     24 OE2        24.5100  -15.7190   74.6210 O.co2   2  GLU2       -0.5492
     25 OE1        26.6220  -15.9590   73.9680 O.co2   2  GLU2       -0.5492
     26 N          21.8550  -13.5650   69.7900 N.am    3  LEU3       -0.1977
     27 CA         20.7110  -13.7940   68.9180 C.3     3  LEU3        0.1596
     28 C          20.9710  -13.4640   67.4350 C.2     3  LEU3        0.2287
     29 O          20.1990  -13.8400   66.5470 O.2     3  LEU3       -0.2864
     30 CB         19.5310  -12.9710   69.4520 C.3     3  LEU3        0.0297
     31 CG         18.7760  -13.6450   70.5880 C.3     3  LEU3        0.0022
     32 CD2        17.9420  -12.6300   71.3470 C.3     3  LEU3        0.0001
     33 CD1        17.9000  -14.7660   70.0070 C.3     3  LEU3        0.0001
     34 N          32.7330   -6.8760   70.2940 N.3     1  LEU1       -0.1245
     35 CA         31.2870   -7.0310   70.1860 C.3     1  LEU1        0.1561
     36 C          30.8790   -7.4930   68.7940 C.2     1  LEU1        0.2260
     37 O          29.8330   -8.1320   68.6240 O.2     1  LEU1       -0.2867
     38 CB         30.5960   -5.6930   70.5160 C.3     1  LEU1        0.0270
     39 CG         30.6360   -5.1320   71.9410 C.3     1  LEU1        0.0019
     40 CD1        29.6870   -3.9260   72.0690 C.3     1  LEU1        0.0001
     41 CD2        30.2990   -6.1820   73.0040 C.3     1  LEU1        0.0001
     42 N          26.3240   -8.3080   61.9620 N.3     1  ASN1       -0.1225
     43 CA         27.4020   -8.2560   62.9220 C.3     1  ASN1        0.1785
     44 C          28.4880   -9.2580   62.4900 C.2     1  ASN1        0.2597
     45 O          28.2040  -10.2620   61.7950 O.2     1  ASN1       -0.2718
     46 CB         26.9020   -8.6240   64.3240 C.3     1  ASN1        0.1169
     47 CG         25.6360   -7.8780   64.7180 C.2     1  ASN1        0.2627
     48 OD1        25.4220   -6.7390   64.3050 O.2     1  ASN1       -0.2716
     49 ND2        24.8020   -8.5240   65.5440 N.am    1  ASN1       -0.0877
     50 N          29.7230   -8.9610   62.8800 N.am    2  GLU2       -0.1965
     51 CA         30.8060   -9.9030   62.7090 C.3     2  GLU2        0.1731
     52 C          30.5180  -11.0470   63.6450 C.2     2  GLU2        0.2616
     53 O          30.3930  -10.8530   64.8390 O.2     2  GLU2       -0.2715
     54 CB         32.1770   -9.2640   62.9920 C.3     2  GLU2        0.0370
     55 CG         32.5490   -8.2130   61.9420 C.3     2  GLU2        0.0440
     56 CD         33.8520   -7.4490   62.2220 C.2     2  GLU2        0.0504
     57 OE2        34.5540   -7.6950   63.2490 O.co2   2  GLU2       -0.5492
     58 OE1        34.1580   -6.5810   61.3750 O.co2   2  GLU2       -0.5492
     59 N          30.3750  -12.2370   63.0770 N.am    3  ASN3       -0.1958
     60 CA         30.0850  -13.4370   63.8500 C.3     3  ASN3        0.1819
     61 C          31.3860  -13.8670   64.5440 C.2     3  ASN3        0.2621
     62 O          32.0110  -14.8600   64.1730 O.2     3  ASN3       -0.2715
     63 CB         29.4910  -14.5290   62.9220 C.3     3  ASN3        0.1195
     64 CG         28.6540  -15.5970   63.6750 C.2     3  ASN3        0.2630
     65 OD1        28.3360  -15.4460   64.8660 O.2     3  ASN3       -0.2716
     66 ND2        28.3040  -16.6750   62.9690 N.am    3  ASN3       -0.0877
     67 N          31.8060  -13.0650   65.5190 N.am    4  VAL4       -0.1963
     68 CA         32.8940  -13.3170   66.4520 C.3     4  VAL4        0.1727
     69 C          32.4770  -14.2110   67.6460 C.2     4  VAL4        0.2616
     70 O          31.2990  -14.3690   67.9420 O.2     4  VAL4       -0.2715
     71 CB         33.5090  -12.0030   66.9800 C.3     4  VAL4        0.0290
     72 CG1        33.7820  -11.0550   65.8780 C.3     4  VAL4        0.0023
     73 CG2        32.6320  -11.3060   67.9720 C.3     4  VAL4        0.0023
     74 N          33.4290  -14.8480   68.2990 N.am    5  GLU5       -0.1963
     75 CA         33.0650  -15.6120   69.4530 C.3     5  GLU5        0.1731
     76 C          32.9800  -14.6760   70.6220 C.2     5  GLU5        0.2616
     77 O          33.7980  -13.8110   70.7720 O.2     5  GLU5       -0.2715
     78 CB         33.9830  -16.7850   69.7600 C.3     5  GLU5        0.0370
     79 CG         33.4780  -17.6330   70.9890 C.3     5  GLU5        0.0440
     80 CD         34.5840  -18.1760   71.8600 C.2     5  GLU5        0.0504
     81 OE2        34.7120  -17.7940   73.0180 O.co2   5  GLU5       -0.5492
     82 OE1        35.3360  -18.9740   71.3810 O.co2   5  GLU5       -0.5492
     83 N          31.9470  -14.8350   71.4140 N.am    6  LEU6       -0.1963
     84 CA         31.8060  -13.9890   72.5500 C.3     6  LEU6        0.1728
     85 C          31.9410  -14.7080   73.8410 C.2     6  LEU6        0.2616
     86 O          32.9780  -14.7350   74.4140 O.2     6  LEU6       -0.2715
     87 CB         30.4820  -13.2710   72.4850 C.3     6  LEU6        0.0311
     88 CG         30.6930  -11.9900   71.7230 C.3     6  LEU6        0.0022
     89 CD1        29.6260  -11.7160   70.7510 C.3     6  LEU6        0.0001
     90 CD2        30.9490  -10.8360   72.6490 C.3     6  LEU6        0.0001
     91 N          30.8560  -15.3180   74.2670 N.am    7  VAL7       -0.1963
     92 CA         30.8240  -16.0580   75.4930 C.3     7  VAL7        0.1727
     93 C          31.3590  -17.4320   75.1880 C.2     7  VAL7        0.2616
     94 O          31.0450  -18.0070   74.1930 O.2     7  VAL7       -0.2715
     95 CB         29.4330  -16.1210   76.0830 C.3     7  VAL7        0.0290
     96 CG2        29.4450  -16.8250   77.3590 C.3     7  VAL7        0.0023
     97 CG1        28.9280  -14.8090   76.2530 C.3     7  VAL7        0.0023
     98 N          32.1980  -17.9230   76.0480 N.am    8  HIS8       -0.1959
     99 CA         32.7940  -19.2280   75.8550 C.3     8  HIS8        0.1784
    100 C          32.1710  -20.2300   76.8340 C.2     8  HIS8        0.2620
    101 O          32.6220  -20.3600   77.9750 O.2     8  HIS8       -0.2715
    102 CB         34.3020  -19.1170   76.0850 C.3     8  HIS8        0.0745
    103 CG         35.0710  -20.2980   75.5960 C.2     8  HIS8        0.0653
    104 ND1        35.5700  -20.3770   74.3150 N.2     8  HIS8       -0.2310
    105 CD2        35.4300  -21.4420   76.2130 C.3     8  HIS8        0.1683
    106 CE1        36.1820  -21.5330   74.1570 C.2     8  HIS8        0.1939
    107 NE2        36.1180  -22.1940   75.2960 N.2     8  HIS8       -0.2440
    108 N          31.1310  -20.9330   76.3890 N.am    9  TYR9       -0.1974
    109 CA         30.4330  -21.8980   77.2310 C.3     9  TYR9        0.1639
    110 C          31.1880  -23.2080   77.2140 C.2     9  TYR9        0.2290
    111 O          31.7970  -23.5590   76.2000 O.2     9  TYR9       -0.2864
    112 CB         29.0000  -22.1530   76.7260 C.3     9  TYR9        0.0560
    113 CG         28.1480  -20.9200   76.6940 C.ar    9  TYR9       -0.0198
    114 CD1        27.9550  -20.2180   75.5140 C.ar    9  TYR9       -0.0009
    115 CD2        27.5510  -20.4400   77.8460 C.ar    9  TYR9       -0.0009
    116 CE1        27.1700  -19.0660   75.4820 C.ar    9  TYR9        0.0417
    117 CE2        26.7920  -19.2940   77.8220 C.ar    9  TYR9        0.0417
    118 CZ         26.6020  -18.6140   76.6390 C.ar    9  TYR9        0.1957
    119 OH         25.8480  -17.4770   76.6320 O.3     9  TYR9       -0.2866
    120 N          31.7300  -26.9730   76.6710 N.3     1  GLN1       -0.1245
    121 CA         31.2450  -27.6350   75.4610 C.3     1  GLN1        0.1566
    122 C          29.9440  -28.4380   75.6690 C.2     1  GLN1        0.2260
    123 O          29.0910  -28.4220   74.7960 O.2     1  GLN1       -0.2867
    124 CB         32.3330  -28.5250   74.8500 C.3     1  GLN1        0.0367
    125 CG         32.0030  -29.0950   73.4710 C.3     1  GLN1        0.0905
    126 CD         31.8320  -28.0240   72.3810 C.2     1  GLN1        0.2608
    127 OE1        32.6510  -27.1120   72.2630 O.2     1  GLN1       -0.2717
    128 NE2        30.7690  -28.1550   71.5570 N.am    1  GLN1       -0.0878
    129 N          27.3720  -27.8380   77.5890 N.3     1  LEU1       -0.1231
    130 CA         26.2560  -26.9040   77.5210 C.3     1  LEU1        0.1693
    131 C          25.9000  -26.5620   76.0780 C.2     1  LEU1        0.2592
    132 O          24.7200  -26.4900   75.7410 O.2     1  LEU1       -0.2718
    133 CB         26.5730  -25.6210   78.2720 C.3     1  LEU1        0.0284
    134 CG         26.7070  -25.6370   79.7800 C.3     1  LEU1        0.0019
    135 CD1        27.2220  -24.2790   80.1950 C.3     1  LEU1        0.0001
    136 CD2        25.3830  -25.9600   80.4700 C.3     1  LEU1        0.0001
    137 N          26.9200  -26.3580   75.2420 N.am    2  LEU2       -0.1966
    138 CA         26.7430  -26.1420   73.8060 C.3     2  LEU2        0.1728
    139 C          26.1830  -27.3400   73.0610 C.2     2  LEU2        0.2616
    140 O          25.4260  -27.1760   72.1010 O.2     2  LEU2       -0.2715
    141 CB         28.0650  -25.7740   73.1270 C.3     2  LEU2        0.0311
    142 CG         28.6620  -24.4000   73.3830 C.3     2  LEU2        0.0022
    143 CD1        29.9400  -24.3400   72.5840 C.3     2  LEU2        0.0001
    144 CD2        27.6880  -23.2910   72.9650 C.3     2  LEU2        0.0001
    145 N          26.6040  -28.5330   73.4670 N.am    3  ASN3       -0.1972
    146 CA         26.1280  -29.7450   72.8530 C.3     3  ASN3        0.1688
    147 C          24.6490  -29.9670   73.1530 C.2     3  ASN3        0.2292
    148 O          23.8810  -30.3430   72.2610 O.2     3  ASN3       -0.2864
    149 CB         26.9520  -30.9590   73.3110 C.3     3  ASN3        0.1181
    150 CG         28.3740  -30.9470   72.7630 C.2     3  ASN3        0.2629
    151 OD1        28.7060  -30.1830   71.8690 O.2     3  ASN3       -0.2716
    152 ND2        29.2150  -31.7950   73.3100 N.am    3  ASN3       -0.0877
    153 N          22.4840  -27.5010   74.1070 N.3     1  ALA1       -0.1231
    154 CA         21.7900  -26.4080   73.4640 C.3     1  ALA1        0.1694
    155 C          21.5310  -26.7590   71.9980 C.2     1  ALA1        0.2592
    156 O          20.4770  -26.4170   71.4600 O.2     1  ALA1       -0.2718
    157 CB         22.5830  -25.0780   73.5930 C.3     1  ALA1        0.0304
    158 N          22.4960  -27.4330   71.3610 N.am    2  ASP2       -0.1976
    159 CA         22.3780  -27.7840   69.9380 C.3     2  ASP2        0.1651
    160 C          21.3720  -28.8990   69.7090 C.2     2  ASP2        0.2291
    161 O          20.6020  -28.8300   68.7580 O.2     2  ASP2       -0.2864
    162 CB         23.7170  -28.1760   69.3090 C.3     2  ASP2        0.0714
    163 CG         23.6870  -28.1260   67.7790 C.2     2  ASP2        0.0525
    164 OD1        24.0580  -29.1250   67.1000 O.co2   2  ASP2       -0.5491
    165 OD2        23.2930  -27.0710   67.2340 O.co2   2  ASP2       -0.5491
    166 N          18.9670  -20.4850   63.0260 N.3     1  LEU1       -0.1231
    167 CA         19.7390  -21.4130   63.8000 C.3     1  LEU1        0.1693
    168 C          20.3030  -20.7670   65.0670 C.2     1  LEU1        0.2592
    169 O          20.2000  -21.3480   66.1410 O.2     1  LEU1       -0.2718
    170 CB         20.8660  -22.0050   62.9400 C.3     1  LEU1        0.0284
    171 CG         21.9360  -22.8360   63.6740 C.3     1  LEU1        0.0019
    172 CD2        21.3550  -24.0400   64.4050 C.3     1  LEU1        0.0001
    173 CD1        23.0230  -23.2490   62.6830 C.3     1  LEU1        0.0001
    174 N          20.9260  -19.5940   64.9170 N.am    2  LYS2       -0.1966
    175 CA         21.4790  -18.8330   66.0530 C.3     2  LYS2        0.1728
    176 C          20.4290  -18.6020   67.1370 C.2     2  LYS2        0.2616
    177 O          20.7150  -18.6880   68.3270 O.2     2  LYS2       -0.2715
    178 CB         22.0450  -17.4760   65.5940 C.3     2  LYS2        0.0311
    179 CG         23.5400  -17.3440   65.8130 C.3     2  LYS2        0.0038
    180 CD         24.0590  -15.8980   66.0500 C.3     2  LYS2        0.0206
    181 CE         25.5060  -15.9420   66.5830 C.3     2  LYS2        0.1093
    182 NZ         25.9880  -14.7030   67.2900 N.3     2  LYS2       -0.1314
    183 N          19.2100  -18.3050   66.7000 N.am    3  GLN3       -0.1977
    184 CA         18.1010  -18.0860   67.6070 C.3     3  GLN3        0.1601
    185 C          17.6500  -19.3550   68.3280 C.2     3  GLN3        0.2287
    186 O          17.3120  -19.2910   69.5080 O.2     3  GLN3       -0.2864
    187 CB         16.9370  -17.4460   66.8720 C.3     3  GLN3        0.0394
    188 CG         17.2180  -16.0090   66.4490 C.3     3  GLN3        0.0908
    189 CD         15.9420  -15.2430   66.1190 C.2     3  GLN3        0.2608
    190 OE1        14.8270  -15.6790   66.4680 O.2     3  GLN3       -0.2717
    191 NE2        16.0930  -14.1090   65.4350 N.am    3  GLN3       -0.0878
    192 N          19.6380  -21.9880   68.9080 N.3     1  ARG1       -0.1231
    193 CA         20.7350  -22.2390   69.8150 C.3     1  ARG1        0.1694
    194 C          20.6690  -21.3410   71.0350 C.2     1  ARG1        0.2592
    195 O          20.9110  -21.8180   72.1330 O.2     1  ARG1       -0.2718
    196 CB         22.0740  -22.1040   69.0920 C.3     1  ARG1        0.0321
    197 CG         22.3430  -23.3120   68.1910 C.3     1  ARG1        0.0489
    198 CD         23.7490  -23.3170   67.6460 C.3     1  ARG1        0.2205
    199 NE         23.9160  -24.3830   66.6640 N.pl3   1  ARG1       -0.0865
    200 CZ         24.8040  -24.3500   65.6720 C.cat   1  ARG1        0.5346
    201 NH2        25.6080  -23.3130   65.5210 N.pl3   1  ARG1        0.1354
    202 NH1        24.8780  -25.3630   64.8180 N.pl3   1  ARG1        0.1354
    203 N          20.3130  -20.0640   70.8520 N.am    2  TRP2       -0.1976
    204 CA         20.1080  -19.1460   71.9880 C.3     2  TRP2        0.1637
    205 C          18.9520  -19.6120   72.8820 C.2     2  TRP2        0.2290
    206 O          19.0850  -19.6600   74.1070 O.2     2  TRP2       -0.2864
    207 CB         19.8950  -17.7150   71.4800 C.3     2  TRP2        0.0537
    208 CG         19.7290  -16.6400   72.5490 C.2     2  TRP2       -0.0165
    209 CD1        20.7260  -15.9150   73.1500 C.3     2  TRP2        0.1477
    210 CD2        18.4910  -16.1570   73.1170 C.ar    2  TRP2        0.0113
    211 NE1        20.1880  -15.0200   74.0600 N.2     2  TRP2       -0.2659
    212 CE2        18.8260  -15.1680   74.0770 C.ar    2  TRP2        0.0758
    213 CE3        17.1360  -16.4890   72.9350 C.ar    2  TRP2        0.0009
    214 CZ2        17.8430  -14.4850   74.8260 C.ar    2  TRP2        0.0187
    215 CZ3        16.1830  -15.8350   73.6850 C.ar    2  TRP2        0.0001
    216 CH2        16.5270  -14.8390   74.6060 C.ar    2  TRP2        0.0015
    217 N          20.0230  -22.5390   75.1280 N.3     1  LEU1       -0.1245
    218 CA         20.8230  -22.1240   76.2990 C.3     1  LEU1        0.1561
    219 C          19.9670  -21.4800   77.3830 C.2     1  LEU1        0.2260
    220 O          20.2180  -21.6620   78.5700 O.2     1  LEU1       -0.2867
    221 CB         21.8990  -21.1190   75.8940 C.3     1  LEU1        0.0270
    222 CG         23.1830  -21.6550   75.2860 C.3     1  LEU1        0.0019
    223 CD1        23.9380  -20.4400   74.7320 C.3     1  LEU1        0.0001
    224 CD2        24.0020  -22.4740   76.2820 C.3     1  LEU1        0.0001
    225 N          28.7960  -15.8450   80.8260 N.3     1  ARG1       -0.1245
    226 CA         28.4330  -14.4930   80.3670 C.3     1  ARG1        0.1563
    227 C          29.1400  -13.3860   81.1140 C.2     1  ARG1        0.2260
    228 O          29.7280  -12.5100   80.4900 O.2     1  ARG1       -0.2867
    229 CB         26.9230  -14.2730   80.4220 C.3     1  ARG1        0.0307
    230 CG         26.2030  -15.1000   79.4010 C.3     1  ARG1        0.0489
    231 CD         24.7570  -15.2960   79.7400 C.3     1  ARG1        0.2205
    232 NE         24.1660  -16.1790   78.7580 N.pl3   1  ARG1       -0.0865
    233 CZ         22.8760  -16.5010   78.6900 C.cat   1  ARG1        0.5346
    234 NH2        21.9930  -16.0050   79.5600 N.pl3   1  ARG1        0.1354
    235 NH1        22.4760  -17.3280   77.7300 N.pl3   1  ARG1        0.1354
@<TRIPOS>UNITY_ATOM_ATTR
24 1
charge -1
57 1
charge -1
81 1
charge -1
164 1
charge -1
@<TRIPOS>BOND
     1     1     2    1
     2     2     3    1
     3     2     5    1
     4     3     4    2
     5     5     6    1
     6     6     7    1
     7     6     8    1
     8     9    10    1
     9    10    11    1
    10    10    13    1
    11    11    12    2
    12    11    17   am
    13    13    14    1
    14    14    16    1
    15    14    15    1
    16    17    18    1
    17    18    19    1
    18    18    21    1
    19    19    20    2
    20    19    26   am
    21    21    22    1
    22    22    23    1
    23    23    25   ar
    24    23    24   ar
    25    26    27    1
    26    27    28    1
    27    27    30    1
    28    28    29    2
    29    30    31    1
    30    31    33    1
    31    31    32    1
    32    34    35    1
    33    35    36    1
    34    35    38    1
    35    36    37    2
    36    38    39    1
    37    39    40    1
    38    39    41    1
    39    42    43    1
    40    43    44    1
    41    43    46    1
    42    44    45    2
    43    44    50   am
    44    46    47    1
    45    47    48    2
    46    47    49   am
    47    50    51    1
    48    51    54    1
    49    51    52    1
    50    52    59   am
    51    52    53    2
    52    54    55    1
    53    55    56    1
    54    56    58   ar
    55    56    57   ar
    56    59    60    1
    57    60    63    1
    58    60    61    1
    59    61    62    2
    60    61    67   am
    61    63    64    1
    62    64    66   am
    63    64    65    2
    64    67    68    1
    65    68    71    1
    66    68    69    1
    67    69    70    2
    68    69    74   am
    69    71    72    1
    70    71    73    1
    71    74    75    1
    72    75    78    1
    73    75    76    1
    74    76    77    2
    75    76    83   am
    76    78    79    1
    77    79    80    1
    78    80    82   ar
    79    80    81   ar
    80    83    84    1
    81    84    87    1
    82    84    85    1
    83    85    91   am
    84    85    86    2
    85    87    88    1
    86    88    89    1
    87    88    90    1
    88    91    92    1
    89    92    93    1
    90    92    95    1
    91    93    94    2
    92    93    98   am
    93    95    97    1
    94    95    96    1
    95    98    99    1
    96    99   102    1
    97    99   100    1
    98   100   108   am
    99   100   101    2
   100   102   103    1
   101   103   104    2
   102   103   105    1
   103   104   106    1
   104   105   107    1
   105   106   107    2
   106   108   109    1
   107   109   112    1
   108   109   110    1
   109   110   111    2
   110   112   113    1
   111   113   114   ar
   112   113   115   ar
   113   114   116   ar
   114   115   117   ar
   115   116   118   ar
   116   117   118   ar
   117   118   119    1
   118   120   121    1
   119   121   124    1
   120   121   122    1
   121   122   123    2
   122   124   125    1
   123   125   126    1
   124   126   128   am
   125   126   127    2
   126   129   130    1
   127   130   131    1
   128   130   133    1
   129   131   137   am
   130   131   132    2
   131   133   134    1
   132   134   135    1
   133   134   136    1
   134   137   138    1
   135   138   139    1
   136   138   141    1
   137   139   140    2
   138   139   145   am
   139   141   142    1
   140   142   143    1
   141   142   144    1
   142   145   146    1
   143   146   147    1
   144   146   149    1
   145   147   148    2
   146   149   150    1
   147   150   151    2
   148   150   152   am
   149   153   154    1
   150   154   155    1
   151   154   157    1
   152   155   158   am
   153   155   156    2
   154   158   159    1
   155   159   162    1
   156   159   160    1
   157   160   161    2
   158   162   163    1
   159   163   164   ar
   160   163   165   ar
   161   166   167    1
   162   167   170    1
   163   167   168    1
   164   168   174   am
   165   168   169    2
   166   170   171    1
   167   171   173    1
   168   171   172    1
   169   174   175    1
   170   175   178    1
   171   175   176    1
   172   176   183   am
   173   176   177    2
   174   178   179    1
   175   179   180    1
   176   180   181    1
   177   181   182    1
   178   183   184    1
   179   184   187    1
   180   184   185    1
   181   185   186    2
   182   187   188    1
   183   188   189    1
   184   189   191   am
   185   189   190    2
   186   192   193    1
   187   193   196    1
   188   193   194    1
   189   194   203   am
   190   194   195    2
   191   196   197    1
   192   197   198    1
   193   198   199    1
   194   199   200    2
   195   200   202    1
   196   200   201    1
   197   203   204    1
   198   204   207    1
   199   204   205    1
   200   205   206    2
   201   207   208    1
   202   208   210    2
   203   208   209    1
   204   209   211    1
   205   210   213   ar
   206   210   212   ar
   207   211   212    2
   208   212   214   ar
   209   213   215   ar
   210   214   216   ar
   211   215   216   ar
   212   217   218    1
   213   218   221    1
   214   218   219    1
   215   219   220    2
   216   221   222    1
   217   222   223    1
   218   222   224    1
   219   225   226    1
   220   226   229    1
   221   226   227    1
   222   227   228    2
   223   229   230    1
   224   230   231    1
   225   231   232    1
   226   232   233    2
   227   233   235    1
   228   233   234    1
