@<TRIPOS>MOLECULE
./1y2v/protein.pdb
 46 43 0 0 0
SMALL
GASTEIGER

@<TRIPOS>ATOM
      1 N          57.1280   10.4660   33.7260 N.3     1  ASP1       -0.1241
      2 CA         56.2330   10.6620   34.8780 C.3     1  ASP1        0.1616
      3 C          56.5270   11.9520   35.6710 C.2     1  ASP1        0.2264
      4 O          56.6670   11.9470   36.9100 O.2     1  ASP1       -0.2867
      5 CB         56.2160    9.4170   35.7810 C.3     1  ASP1        0.0687
      6 CG         55.0870    9.4430   36.7970 C.2     1  ASP1        0.0522
      7 OD2        55.3320    9.0230   37.9500 O.co2   1  ASP1       -0.5491
      8 OD1        53.9300    9.8630   36.5450 O.co2   1  ASP1       -0.5491
      9 N          55.3750   16.2510   36.0410 N.3     1  SER1       -0.1217
     10 CA         54.3220   17.2250   35.7890 C.3     1  SER1        0.1889
     11 C          54.5440   18.4740   36.6340 C.2     1  SER1        0.2288
     12 O          55.3160   18.4570   37.5980 O.2     1  SER1       -0.2866
     13 CB         52.9440   16.6060   36.0570 C.3     1  SER1        0.2089
     14 OG         52.8410   16.1180   37.3870 O.3     1  SER1       -0.2183
     15 N          53.6740   16.7760   41.6940 N.3     1  LEU1       -0.1231
     16 CA         52.2230   16.6980   41.8260 C.3     1  LEU1        0.1693
     17 C          51.7340   15.2850   42.1220 C.2     1  LEU1        0.2593
     18 O          52.2510   14.3090   41.5720 O.2     1  LEU1       -0.2718
     19 CB         51.5300   17.2250   40.5610 C.3     1  LEU1        0.0284
     20 CG         51.9100   18.5940   39.9810 C.3     1  LEU1        0.0019
     21 CD1        51.1010   18.8320   38.7060 C.3     1  LEU1        0.0001
     22 CD2        51.6710   19.7240   40.9790 C.3     1  LEU1        0.0001
     23 N          50.7450   15.1880   43.0050 N.am    2  THR2       -0.1939
     24 CA         49.9720   13.9610   43.1570 C.3     2  THR2        0.2028
     25 C          48.9350   13.9510   42.0300 C.2     2  THR2        0.2642
     26 O          48.6960   14.9900   41.3950 O.2     2  THR2       -0.2714
     27 CB         49.2970   13.8840   44.5600 C.3     2  THR2        0.1808
     28 OG1        48.2830   14.8940   44.6850 O.3     2  THR2       -0.2208
     29 CG2        50.2870   14.2440   45.6750 C.3     2  THR2        0.0379
     30 N          48.3340   12.7920   41.7670 N.am    3  ASN3       -0.1957
     31 CA         47.2680   12.6960   40.7690 C.3     3  ASN3        0.1819
     32 C          46.0480   13.5550   41.1270 C.2     3  ASN3        0.2621
     33 O          45.2710   13.9340   40.2470 O.2     3  ASN3       -0.2715
     34 CB         46.8470   11.2370   40.5540 C.3     3  ASN3        0.1195
     35 CG         47.9280   10.3970   39.8790 C.2     3  ASN3        0.2630
     36 OD1        47.8660    9.1610   39.8980 O.2     3  ASN3       -0.2716
     37 ND2        48.9160   11.0560   39.2760 N.am    3  ASN3       -0.0877
     38 N          45.8960   13.8650   42.4150 N.am    4  GLU4       -0.1977
     39 CA         44.7950   14.7030   42.8940 C.3     4  GLU4        0.1600
     40 C          45.1010   16.2000   42.7550 C.2     4  GLU4        0.2287
     41 O          44.2450   17.0420   43.0500 O.2     4  GLU4       -0.2864
     42 CB         44.4480   14.3730   44.3560 C.3     4  GLU4        0.0356
     43 CG         43.9310   12.9520   44.5940 C.3     4  GLU4        0.0439
     44 CD         45.0000   11.8850   44.3840 C.2     4  GLU4        0.0504
     45 OE2        46.1280   12.0400   44.9050 O.co2   4  GLU4       -0.5492
     46 OE1        44.7180   10.8920   43.6800 O.co2   4  GLU4       -0.5492
@<TRIPOS>UNITY_ATOM_ATTR
7 1
charge -1
45 1
charge -1
@<TRIPOS>BOND
     1     1     2    1
     2     2     3    1
     3     2     5    1
     4     3     4    2
     5     5     6    1
     6     6     8   ar
     7     6     7   ar
     8     9    10    1
     9    10    13    1
    10    10    11    1
    11    11    12    2
    12    13    14    1
    13    15    16    1
    14    16    19    1
    15    16    17    1
    16    17    18    2
    17    17    23   am
    18    19    20    1
    19    20    21    1
    20    20    22    1
    21    23    24    1
    22    24    25    1
    23    24    27    1
    24    25    26    2
    25    25    30   am
    26    27    28    1
    27    27    29    1
    28    30    31    1
    29    31    34    1
    30    31    32    1
    31    32    33    2
    32    32    38   am
    33    34    35    1
    34    35    37   am
    35    35    36    2
    36    38    39    1
    37    39    40    1
    38    39    42    1
    39    40    41    2
    40    42    43    1
    41    43    44    1
    42    44    46   ar
    43    44    45   ar
