@<TRIPOS>MOLECULE
./1y2v/protein.pdb
 134 135 0 0 0
SMALL
GASTEIGER

@<TRIPOS>ATOM
      1 N          55.1850   32.2940   26.6320 N.3     1  ARG1       -0.1231
      2 CA         55.9440   31.5070   25.6700 C.3     1  ARG1        0.1694
      3 C          56.5770   30.3390   26.3930 C.2     1  ARG1        0.2592
      4 O          57.2590   30.5200   27.4080 O.2     1  ARG1       -0.2718
      5 CB         57.0440   32.3510   25.0340 C.3     1  ARG1        0.0321
      6 CG         56.5470   33.5100   24.2010 C.3     1  ARG1        0.0489
      7 CD         57.6350   34.5170   23.8840 C.3     1  ARG1        0.2205
      8 NE         57.2570   35.3980   22.7810 N.pl3   1  ARG1       -0.0865
      9 CZ         58.0670   36.2950   22.2270 C.cat   1  ARG1        0.5346
     10 NH2        59.3190   36.4320   22.6630 N.pl3   1  ARG1        0.1354
     11 NH1        57.6280   37.0510   21.2300 N.pl3   1  ARG1        0.1354
     12 N          56.3600   29.1410   25.8700 N.am    2  VAL2       -0.1966
     13 CA         56.8840   27.9430   26.5090 C.3     2  VAL2        0.1727
     14 C          58.1560   27.4740   25.8170 C.2     2  VAL2        0.2616
     15 O          58.1960   27.3160   24.5920 O.2     2  VAL2       -0.2715
     16 CB         55.8490   26.8060   26.5410 C.3     2  VAL2        0.0290
     17 CG1        56.4230   25.5580   27.2200 C.3     2  VAL2        0.0023
     18 CG2        54.5820   27.2690   27.2430 C.3     2  VAL2        0.0023
     19 N          59.1900   27.2710   26.6280 N.am    3  TYR3       -0.1960
     20 CA         60.4710   26.7710   26.1620 C.3     3  TYR3        0.1771
     21 C          60.7450   25.4380   26.8260 C.2     3  TYR3        0.2619
     22 O          60.7710   25.3280   28.0590 O.2     3  TYR3       -0.2715
     23 CB         61.5830   27.7710   26.4710 C.3     3  TYR3        0.0574
     24 CG         61.4200   29.0810   25.7390 C.ar    3  TYR3       -0.0198
     25 CD2        60.6610   30.1170   26.2860 C.ar    3  TYR3       -0.0009
     26 CD1        61.9980   29.2780   24.4840 C.ar    3  TYR3       -0.0009
     27 CE2        60.4890   31.3180   25.6040 C.ar    3  TYR3        0.0417
     28 CE1        61.8260   30.4680   23.7910 C.ar    3  TYR3        0.0417
     29 CZ         61.0800   31.4880   24.3590 C.ar    3  TYR3        0.1957
     30 OH         60.9300   32.6760   23.6860 O.3     3  TYR3       -0.2866
     31 N          60.9120   24.4150   25.9990 N.am    4  GLN4       -0.1977
     32 CA         61.2780   23.0960   26.4770 C.3     4  GLN4        0.1601
     33 C          62.7280   22.8810   26.0590 C.2     4  GLN4        0.2287
     34 O          63.0150   22.7370   24.8660 O.2     4  GLN4       -0.2864
     35 CB         60.3400   22.0500   25.8690 C.3     4  GLN4        0.0394
     36 CG         60.3780   20.7270   26.5790 C.3     4  GLN4        0.0908
     37 CD         59.1010   19.9220   26.4240 C.2     4  GLN4        0.2608
     38 OE1        59.0140   18.8330   26.9580 O.2     4  GLN4       -0.2717
     39 NE2        58.1150   20.4530   25.6870 N.am    4  GLN4       -0.0878
     40 N          59.0560   14.7780   27.3620 N.3     1  PHE1       -0.1227
     41 CA         58.2480   15.7090   26.5850 C.3     1  PHE1        0.1736
     42 C          57.0180   16.1300   27.3670 C.2     1  PHE1        0.2595
     43 O          56.1340   15.3160   27.6490 O.2     1  PHE1       -0.2718
     44 CB         57.8450   15.1280   25.2230 C.3     1  PHE1        0.0547
     45 CG         57.1080   16.1140   24.3450 C.ar    1  PHE1       -0.0202
     46 CD1        57.7840   17.1800   23.7530 C.ar    1  PHE1       -0.0042
     47 CD2        55.7410   15.9820   24.1300 C.ar    1  PHE1       -0.0042
     48 CE1        57.1040   18.1000   22.9450 C.ar    1  PHE1       -0.0003
     49 CE2        55.0520   16.8910   23.3170 C.ar    1  PHE1       -0.0003
     50 CZ         55.7410   17.9520   22.7220 C.ar    1  PHE1       -0.0000
     51 N          56.9830   17.4110   27.7210 N.am    2  PHE2       -0.1962
     52 CA         55.8700   17.9830   28.4610 C.3     2  PHE2        0.1771
     53 C          54.8590   18.5280   27.4570 C.2     2  PHE2        0.2619
     54 O          55.2270   19.2550   26.5260 O.2     2  PHE2       -0.2715
     55 CB         56.3590   19.0980   29.3810 C.3     2  PHE2        0.0574
     56 CG         57.1700   18.6100   30.5540 C.ar    2  PHE2       -0.0200
     57 CD1        58.5220   18.3020   30.4040 C.ar    2  PHE2       -0.0042
     58 CD2        56.5790   18.4570   31.8040 C.ar    2  PHE2       -0.0042
     59 CE1        59.2770   17.8470   31.4840 C.ar    2  PHE2       -0.0003
     60 CE2        57.3250   18.0090   32.8910 C.ar    2  PHE2       -0.0003
     61 CZ         58.6750   17.7030   32.7290 C.ar    2  PHE2       -0.0000
     62 N          53.6020   18.1490   27.6440 N.am    3  ARG3       -0.1964
     63 CA         52.5040   18.5740   26.7760 C.3     3  ARG3        0.1714
     64 C          51.4500   19.2650   27.6390 C.2     3  ARG3        0.2458
     65 O          51.3100   18.9240   28.8170 O.2     3  ARG3       -0.2730
     66 CB         51.9010   17.3650   26.0450 C.3     3  ARG3        0.0347
     67 CG         50.9540   16.5100   26.9050 C.3     3  ARG3        0.0492
     68 CD         50.6270   15.1390   26.3050 C.3     3  ARG3        0.2205
     69 NE         49.3900   14.5780   26.8580 N.pl3   3  ARG3       -0.0865
     70 CZ         49.3020   13.8780   27.9850 C.cat   3  ARG3        0.5346
     71 NH2        50.3860   13.6350   28.7210 N.pl3   3  ARG3        0.1354
     72 NH1        48.1200   13.4120   28.3830 N.pl3   3  ARG3        0.1354
     73 N          50.7260   20.2360   27.0760 N.am    4  PRO4       -0.2727
     74 CA         49.6700   20.9420   27.8170 C.3     4  PRO4        0.1402
     75 C          48.4910   20.0130   28.1080 C.2     4  PRO4        0.2269
     76 O          48.1000   19.2520   27.2110 O.2     4  PRO4       -0.2865
     77 CB         49.2440   22.0430   26.8430 C.3     4  PRO4        0.0296
     78 CG         49.5850   21.5030   25.4820 C.3     4  PRO4        0.0237
     79 CD         50.8630   20.7450   25.6960 C.3     4  PRO4        0.0939
     80 N          50.9540   31.1350   18.8510 N.3     1  GLY1       -0.1210
     81 CA         51.8200   30.1600   19.4900 C.3     1  GLY1        0.1956
     82 C          52.0470   30.3520   20.9800 C.2     1  GLY1        0.2612
     83 O          52.8030   29.5970   21.5860 O.2     1  GLY1       -0.2717
     84 N          51.3890   31.3560   21.5630 N.am    2  GLU2       -0.1965
     85 CA         51.5430   31.6870   22.9740 C.3     2  GLU2        0.1731
     86 C          50.2460   31.4340   23.7430 C.2     2  GLU2        0.2616
     87 O          49.1650   31.4260   23.1580 O.2     2  GLU2       -0.2715
     88 CB         51.9690   33.1490   23.1340 C.3     2  GLU2        0.0370
     89 CG         53.2310   33.5040   22.3560 C.3     2  GLU2        0.0440
     90 CD         53.7060   34.9250   22.5930 C.2     2  GLU2        0.0504
     91 OE2        53.2830   35.5450   23.5910 O.co2   2  GLU2       -0.5492
     92 OE1        54.5230   35.4140   21.7860 O.co2   2  GLU2       -0.5492
     93 N          50.3590   31.1970   25.0440 N.am    3  TYR3       -0.1974
     94 CA         49.1740   31.0390   25.8810 C.3     3  TYR3        0.1639
     95 C          48.8740   32.4080   26.4710 C.2     3  TYR3        0.2290
     96 O          49.7360   33.0030   27.1170 O.2     3  TYR3       -0.2864
     97 CB         49.4180   30.0440   27.0070 C.3     3  TYR3        0.0560
     98 CG         49.6260   28.6270   26.5280 C.ar    3  TYR3       -0.0198
     99 CD2        50.9110   28.1360   26.2950 C.ar    3  TYR3       -0.0009
    100 CD1        48.5400   27.7850   26.2830 C.ar    3  TYR3       -0.0009
    101 CE2        51.1140   26.8370   25.8400 C.ar    3  TYR3        0.0417
    102 CE1        48.7370   26.4710   25.8250 C.ar    3  TYR3        0.0417
    103 CZ         50.0310   26.0170   25.6070 C.ar    3  TYR3        0.1957
    104 OH         50.2570   24.7330   25.1550 O.3     3  TYR3       -0.2866
    105 N          51.1970   20.9670   32.7580 N.3     1  PHE1       -0.1241
    106 CA         51.9260   20.2470   31.7190 C.3     1  PHE1        0.1605
    107 C          52.3410   18.8950   32.2750 C.2     1  PHE1        0.2264
    108 O          52.7140   18.7870   33.4580 O.2     1  PHE1       -0.2867
    109 CB         53.1700   21.0280   31.2850 C.3     1  PHE1        0.0534
    110 CG         52.8720   22.2390   30.4360 C.ar    1  PHE1       -0.0203
    111 CD2        52.5010   23.4550   31.0230 C.ar    1  PHE1       -0.0042
    112 CD1        52.9860   22.1730   29.0440 C.ar    1  PHE1       -0.0042
    113 CE2        52.2290   24.5770   30.2350 C.ar    1  PHE1       -0.0003
    114 CE1        52.7190   23.2870   28.2410 C.ar    1  PHE1       -0.0003
    115 CZ         52.3390   24.4960   28.8420 C.ar    1  PHE1       -0.0000
    116 N          53.8870   19.5630   36.2510 N.3     1  PHE1       -0.1241
    117 CA         53.9250   20.7960   37.0290 C.3     1  PHE1        0.1605
    118 C          52.7330   21.6800   36.6940 C.2     1  PHE1        0.2264
    119 O          52.1690   21.5850   35.6010 O.2     1  PHE1       -0.2867
    120 CB         55.2370   21.5550   36.7980 C.3     1  PHE1        0.0534
    121 CG         55.3640   22.1510   35.4230 C.ar    1  PHE1       -0.0203
    122 CD2        54.8960   23.4400   35.1650 C.ar    1  PHE1       -0.0042
    123 CD1        55.9540   21.4300   34.3860 C.ar    1  PHE1       -0.0042
    124 CE2        55.0040   23.9990   33.8970 C.ar    1  PHE1       -0.0003
    125 CE1        56.0780   21.9890   33.1050 C.ar    1  PHE1       -0.0003
    126 CZ         55.6050   23.2780   32.8640 C.ar    1  PHE1       -0.0000
    127 N          61.1980   25.1450   30.6960 N.3     1  ILE1       -0.1245
    128 CA         61.2750   23.7830   31.2100 C.3     1  ILE1        0.1561
    129 C          62.7140   23.2770   31.0650 C.2     1  ILE1        0.2260
    130 O          63.2420   23.1700   29.9470 O.2     1  ILE1       -0.2867
    131 CB         60.2720   22.8600   30.4730 C.3     1  ILE1        0.0252
    132 CG1        58.8380   23.3710   30.6550 C.3     1  ILE1        0.0019
    133 CG2        60.4030   21.3970   30.9530 C.3     1  ILE1        0.0019
    134 CD1        57.8250   22.7190   29.7130 C.3     1  ILE1        0.0001
@<TRIPOS>UNITY_ATOM_ATTR
91 1
charge -1
@<TRIPOS>BOND
     1     1     2    1
     2     2     5    1
     3     2     3    1
     4     3    12   am
     5     3     4    2
     6     5     6    1
     7     6     7    1
     8     7     8    1
     9     8     9    2
    10     9    11    1
    11     9    10    1
    12    12    13    1
    13    13    14    1
    14    13    16    1
    15    14    15    2
    16    14    19   am
    17    16    17    1
    18    16    18    1
    19    19    20    1
    20    20    23    1
    21    20    21    1
    22    21    31   am
    23    21    22    2
    24    23    24    1
    25    24    26   ar
    26    24    25   ar
    27    25    27   ar
    28    26    28   ar
    29    27    29   ar
    30    28    29   ar
    31    29    30    1
    32    31    32    1
    33    32    35    1
    34    32    33    1
    35    33    34    2
    36    35    36    1
    37    36    37    1
    38    37    39   am
    39    37    38    2
    40    40    41    1
    41    41    44    1
    42    41    42    1
    43    42    43    2
    44    42    51   am
    45    44    45    1
    46    45    46   ar
    47    45    47   ar
    48    46    48   ar
    49    47    49   ar
    50    48    50   ar
    51    49    50   ar
    52    51    52    1
    53    52    53    1
    54    52    55    1
    55    53    54    2
    56    53    62   am
    57    55    56    1
    58    56    57   ar
    59    56    58   ar
    60    57    59   ar
    61    58    60   ar
    62    59    61   ar
    63    60    61   ar
    64    62    63    1
    65    63    66    1
    66    63    64    1
    67    64    73   am
    68    64    65    2
    69    66    67    1
    70    67    68    1
    71    68    69    1
    72    69    70    2
    73    70    72    1
    74    70    71    1
    75    73    79    1
    76    73    74    1
    77    74    77    1
    78    74    75    1
    79    75    76    2
    80    77    78    1
    81    78    79    1
    82    80    81    1
    83    81    82    1
    84    82    84   am
    85    82    83    2
    86    84    85    1
    87    85    88    1
    88    85    86    1
    89    86    87    2
    90    86    93   am
    91    88    89    1
    92    89    90    1
    93    90    92   ar
    94    90    91   ar
    95    93    94    1
    96    94    95    1
    97    94    97    1
    98    95    96    2
    99    97    98    1
   100    98   100   ar
   101    98    99   ar
   102    99   101   ar
   103   100   102   ar
   104   101   103   ar
   105   102   103   ar
   106   103   104    1
   107   105   106    1
   108   106   109    1
   109   106   107    1
   110   107   108    2
   111   109   110    1
   112   110   112   ar
   113   110   111   ar
   114   111   113   ar
   115   112   114   ar
   116   113   115   ar
   117   114   115   ar
   118   116   117    1
   119   117   118    1
   120   117   120    1
   121   118   119    2
   122   120   121    1
   123   121   123   ar
   124   121   122   ar
   125   122   124   ar
   126   123   125   ar
   127   124   126   ar
   128   125   126   ar
   129   127   128    1
   130   128   131    1
   131   128   129    1
   132   129   130    2
   133   131   132    1
   134   131   133    1
   135   132   134    1
