@<TRIPOS>MOLECULE
./1ql9/protein.pdb
 187 188 0 0 0
SMALL
GASTEIGER

@<TRIPOS>ATOM
      1 N          14.6480   39.5220   55.7930 N.3     1  HIS1       -0.1241
      2 CA         13.8890   39.6870   57.0280 C.3     1  HIS1        0.1618
      3 C          12.5560   38.9370   57.0070 C.2     1  HIS1        0.2264
      4 O          11.8760   38.8480   58.0220 O.2     1  HIS1       -0.2867
      5 CB         13.7500   41.1850   57.4150 C.3     1  HIS1        0.0704
      6 CG         12.5090   41.8710   56.9150 C.2     1  HIS1        0.0649
      7 ND1        12.5100   42.7220   55.8250 N.2     1  HIS1       -0.2310
      8 CD2        11.2530   41.9200   57.4210 C.3     1  HIS1        0.1683
      9 CE1        11.3120   43.2630   55.6880 C.2     1  HIS1        0.1939
     10 NE2        10.5340   42.7930   56.6450 N.2     1  HIS1       -0.2440
     11 N          19.4730   46.1500   58.4830 N.3     1  TYR1       -0.1241
     12 CA         18.7100   45.6990   57.3250 C.3     1  TYR1        0.1605
     13 C          19.5090   45.8200   56.0360 C.2     1  TYR1        0.2264
     14 O          18.9470   45.8560   54.9380 O.2     1  TYR1       -0.2867
     15 CB         17.3800   46.4410   57.2120 C.3     1  TYR1        0.0534
     16 CG         16.3070   45.8780   58.1080 C.ar    1  TYR1       -0.0201
     17 CD2        16.4970   45.7900   59.4860 C.ar    1  TYR1       -0.0009
     18 CD1        15.0970   45.4330   57.5800 C.ar    1  TYR1       -0.0009
     19 CE2        15.5070   45.2730   60.3180 C.ar    1  TYR1        0.0417
     20 CE1        14.0990   44.9140   58.4020 C.ar    1  TYR1        0.0417
     21 CZ         14.3100   44.8380   59.7700 C.ar    1  TYR1        0.1957
     22 OH         13.3240   44.3340   60.5870 O.3     1  TYR1       -0.2866
     23 N          -0.3540   46.1540   55.0040 N.3     1  ASN1       -0.1240
     24 CA         -1.1950   47.1090   55.7100 C.3     1  ASN1        0.1653
     25 C          -1.4870   48.3290   54.8260 C.2     1  ASN1        0.2266
     26 O          -0.5910   48.8480   54.1450 O.2     1  ASN1       -0.2867
     27 CB         -0.4840   47.5270   57.0010 C.3     1  ASN1        0.1155
     28 CG         -1.3030   48.4730   57.8460 C.2     1  ASN1        0.2627
     29 OD1        -2.5090   48.6280   57.6430 O.2     1  ASN1       -0.2716
     30 ND2        -0.6520   49.1130   58.8060 N.am    1  ASN1       -0.0877
     31 N          -3.9260   49.0500   61.6720 N.3     1  VAL1       -0.1245
     32 CA         -3.6810   47.9830   60.7140 C.3     1  VAL1        0.1561
     33 C          -4.9390   47.5310   59.9870 C.2     1  VAL1        0.2260
     34 O          -5.9960   47.3810   60.5920 O.2     1  VAL1       -0.2867
     35 CB         -3.0620   46.7390   61.4150 C.3     1  VAL1        0.0252
     36 CG1        -2.8400   45.6110   60.4160 C.3     1  VAL1        0.0019
     37 CG2        -1.7500   47.1030   62.0960 C.3     1  VAL1        0.0019
     38 N          17.0040   59.5910   56.7550 N.3     1  TYR1       -0.1241
     39 CA         17.5120   58.6180   57.7210 C.3     1  TYR1        0.1605
     40 C          19.0210   58.7470   57.9140 C.2     1  TYR1        0.2264
     41 O          19.7950   57.9150   57.4220 O.2     1  TYR1       -0.2867
     42 CB         17.1570   57.2010   57.2630 C.3     1  TYR1        0.0534
     43 CG         15.6760   56.9930   57.0390 C.ar    1  TYR1       -0.0201
     44 CD2        14.8040   56.8630   58.1160 C.ar    1  TYR1       -0.0009
     45 CD1        15.1460   56.9230   55.7520 C.ar    1  TYR1       -0.0009
     46 CE2        13.4360   56.6630   57.9200 C.ar    1  TYR1        0.0417
     47 CE1        13.7760   56.7240   55.5450 C.ar    1  TYR1        0.0417
     48 CZ         12.9290   56.5940   56.6360 C.ar    1  TYR1        0.1957
     49 OH         11.5820   56.3650   56.4560 O.3     1  TYR1       -0.2866
     50 N           2.7290   54.9950   50.6070 N.3     1  VAL1       -0.1227
     51 CA          3.9430   54.2900   51.0260 C.3     1  VAL1        0.1748
     52 C           3.6860   52.7860   51.1420 C.2     1  VAL1        0.2597
     53 O           2.5610   52.3190   50.9620 O.2     1  VAL1       -0.2718
     54 CB          4.3310   54.8360   52.4150 C.3     1  VAL1        0.0701
     55 CG          5.7740   54.5440   52.8150 C.2     1  VAL1        0.0523
     56 OD1         6.5600   54.0060   52.0080 O.co2   1  VAL1       -0.5491
     57 OD2         6.1240   54.8900   53.9640 O.co2   1  VAL1       -0.5491
     58 N           4.7520   52.0260   51.3670 N.am    2  SER2       -0.1938
     59 CA          4.6350   50.5950   51.5950 C.3     2  SER2        0.2055
     60 C           4.4090   50.4880   53.1050 C.2     2  SER2        0.2643
     61 O           4.5220   51.4860   53.8210 O.2     2  SER2       -0.2714
     62 CB          5.9220   49.8670   51.2060 C.3     2  SER2        0.2130
     63 OG          6.0310   49.7550   49.8040 O.3     2  SER2       -0.2179
     64 N           4.0950   49.2970   53.5960 N.am    3  TRP3       -0.1953
     65 CA          3.8610   49.1180   55.0210 C.3     3  TRP3        0.1843
     66 C           4.0460   47.6350   55.3440 C.2     3  TRP3        0.2625
     67 O           4.3800   46.8540   54.4540 O.2     3  TRP3       -0.2714
     68 CB          2.4590   49.6230   55.3890 C.3     3  TRP3        0.0997
     69 SG          2.2240   50.0040   57.1590 S.3     3  TRP3       -0.0797
     70 N           3.8330   47.2430   56.6000 N.am    4  GLY4       -0.1963
     71 CA          4.0130   45.8460   56.9990 C.3     4  GLY4        0.1733
     72 C           3.2080   44.8980   56.1230 C.2     4  GLY4        0.2617
     73 O           2.0570   45.1860   55.7700 O.2     4  GLY4       -0.2715
     74 CB          3.6540   45.6260   58.4730 C.3     4  GLY4        0.0408
     75 CG          2.1820   45.4030   58.7560 C.3     4  GLY4        0.0908
     76 CD          1.9450   44.2710   59.7400 C.2     4  GLY4        0.2608
     77 OE1         2.8590   43.8310   60.4360 O.2     4  GLY4       -0.2717
     78 NE2         0.7070   43.8050   59.8160 N.am    4  GLY4       -0.0878
     79 N           3.8020   43.7650   55.7850 N.am    5  TYR5       -0.1940
     80 CA          3.1170   42.8080   54.9440 C.3     5  TYR5        0.2014
     81 C           3.5100   42.9900   53.4930 C.2     5  TYR5        0.2639
     82 O           3.2690   42.1060   52.6690 O.2     5  TYR5       -0.2714
     83 N           4.0660   44.1510   53.1570 N.am    6  GLY6       -0.1959
     84 CA          4.4960   44.4080   51.7860 C.3     6  GLY6        0.1783
     85 C           5.9350   43.9610   51.6340 C.2     6  GLY6        0.2620
     86 O           6.4200   43.7670   50.5170 O.2     6  GLY6       -0.2715
     87 CB          4.3970   45.8960   51.4370 C.3     6  GLY6        0.0728
     88 CG          2.9750   46.3560   51.2130 C.2     6  GLY6        0.0526
     89 OD1         2.2010   45.6250   50.5740 O.co2   6  GLY6       -0.5491
     90 OD2         2.6320   47.4640   51.6640 O.co2   6  GLY6       -0.5491
     91 N           6.6150   43.8110   52.7660 N.am    7  CYS7       -0.1950
     92 CA          8.0100   43.3940   52.8030 C.3     7  CYS7        0.1924
     93 CB          8.3440   42.2300   51.8830 C.2     7  CYS7        0.2314
     94 O           7.5800   41.2740   51.7610 O.2     7  CYS7       -0.2863
     95 C           8.4010   43.0740   54.2340 C.3     7  CYS7        0.2116
     96 O           8.3700   44.2650   54.9850 O.3     7  CYS7       -0.2180
     97 N          10.8460   45.6910   48.9040 N.3     1  VAL1       -0.1231
     98 CA         10.3220   46.3720   50.0870 C.3     1  VAL1        0.1692
     99 C          11.1210   45.9040   51.3000 C.2     1  VAL1        0.2593
    100 O          11.1440   44.7130   51.6170 O.2     1  VAL1       -0.2718
    101 CB          8.8230   46.0890   50.2930 C.3     1  VAL1        0.0266
    102 CG2         8.3070   46.8600   51.4940 C.3     1  VAL1        0.0020
    103 CG1         8.0390   46.4630   49.0340 C.3     1  VAL1        0.0020
    104 N          11.7660   46.8460   51.9780 N.am    2  SER2       -0.1938
    105 CA         12.6040   46.5130   53.1140 C.3     2  SER2        0.2055
    106 C          12.1660   47.0860   54.4630 C.2     2  SER2        0.2643
    107 O          11.7270   46.3400   55.3370 O.2     2  SER2       -0.2714
    108 CB         14.0450   46.9220   52.8040 C.3     2  SER2        0.2130
    109 OG         14.9550   46.3740   53.7330 O.3     2  SER2       -0.2179
    110 N          12.2850   48.3970   54.6450 N.am    3  TRP3       -0.1959
    111 CA         11.9170   48.9930   55.9250 C.3     3  TRP3        0.1768
    112 C          11.5200   50.4590   55.8840 C.2     3  TRP3        0.2620
    113 O          11.6310   51.1280   54.8630 O.2     3  TRP3       -0.2715
    114 CB         13.0530   48.8120   56.9460 C.3     3  TRP3        0.0553
    115 CG         14.3410   49.5220   56.5960 C.2     3  TRP3       -0.0136
    116 CD1        15.3270   49.0670   55.7710 C.2     3  TRP3        0.0907
    117 CD2        14.7740   50.8090   57.0670 C.3     3  TRP3        0.0819
    118 NE1        16.3410   49.9880   55.6940 N.2     3  TRP3       -0.2482
    119 CE2        16.0290   51.0670   56.4790 C.2     3  TRP3        0.0665
    120 CE3        14.2200   51.7700   57.9260 C.2     3  TRP3       -0.0164
    121 CZ2        16.7450   52.2470   56.7210 C.2     3  TRP3        0.0153
    122 CZ3        14.9310   52.9410   58.1640 C.2     3  TRP3       -0.0038
    123 CH2        16.1810   53.1680   57.5630 C.2     3  TRP3        0.0009
    124 N          11.0630   50.9390   57.0320 N.am    4  GLY4       -0.1940
    125 CA         10.6490   52.3170   57.2020 C.3     4  GLY4        0.2014
    126 C          10.3540   52.4330   58.6820 C.2     4  GLY4        0.2639
    127 O          10.1820   51.4080   59.3520 O.2     4  GLY4       -0.2714
    128 N          10.3150   53.6490   59.2100 N.am    5  TYR5       -0.1959
    129 CA         10.0440   53.8270   60.6330 C.3     5  TYR5        0.1771
    130 C           8.5600   53.9520   60.9670 C.2     5  TYR5        0.2620
    131 O           8.1660   53.9450   62.1360 O.2     5  TYR5       -0.2715
    132 CB         10.8400   55.0120   61.1860 C.3     5  TYR5        0.0574
    133 CG         12.3040   54.6860   61.4130 C.ar    5  TYR5       -0.0198
    134 CD2        12.6930   53.4270   61.8680 C.ar    5  TYR5       -0.0009
    135 CD1        13.3000   55.6320   61.1720 C.ar    5  TYR5       -0.0009
    136 CE2        14.0300   53.1180   62.0790 C.ar    5  TYR5        0.0417
    137 CE1        14.6460   55.3300   61.3810 C.ar    5  TYR5        0.0417
    138 CZ         15.0010   54.0700   61.8350 C.ar    5  TYR5        0.1957
    139 OH         16.3240   53.7640   62.0560 O.3     5  TYR5       -0.2866
    140 N           7.7450   54.0310   59.9260 N.am    6  GLY6       -0.1940
    141 CA          6.3110   54.1510   60.0780 C.3     6  GLY6        0.2014
    142 C           5.7280   53.8440   58.7160 C.2     6  GLY6        0.2639
    143 O           6.3800   53.1830   57.9040 O.2     6  GLY6       -0.2714
    144 N           4.5310   54.3470   58.4420 N.am    7  CYS7       -0.1967
    145 CA          3.9000   54.1000   57.1560 C.3     7  CYS7        0.1712
    146 C           3.1920   55.3230   56.6080 C.2     7  CYS7        0.2296
    147 O           2.2200   55.8060   57.1890 O.2     7  CYS7       -0.2864
    148 CB          2.9100   52.9410   57.2590 C.3     7  CYS7        0.0983
    149 SG          3.6850   51.3380   57.6140 S.3     7  CYS7       -0.0798
    150 N           9.4010   60.6780   55.6390 N.3     1  ASN1       -0.1226
    151 CA          9.8120   59.3330   56.0180 C.3     1  ASN1        0.1770
    152 C           9.4460   58.3490   54.9130 C.2     1  ASN1        0.2439
    153 O           8.5680   57.5000   55.0860 O.2     1  ASN1       -0.2733
    154 CB          9.1420   58.9140   57.3310 C.3     1  ASN1        0.1168
    155 CG          9.7580   59.5850   58.5500 C.2     1  ASN1        0.2627
    156 OD1        10.7350   59.0940   59.1130 O.2     1  ASN1       -0.2716
    157 ND2         9.1790   60.7030   58.9700 N.am    1  ASN1       -0.0877
    158 N          10.0970   58.4690   53.7440 N.am    2  PRO2       -0.2718
    159 CA          9.8160   57.5720   52.6240 C.3     2  PRO2        0.1535
    160 C          10.2730   56.1570   52.9610 C.2     2  PRO2        0.2599
    161 O          11.1130   55.9700   53.8360 O.2     2  PRO2       -0.2715
    162 CB         10.6550   58.1750   51.5000 C.3     2  PRO2        0.0310
    163 CG         11.8480   58.7050   52.2310 C.3     2  PRO2        0.0237
    164 CD         11.2090   59.3830   53.4170 C.3     2  PRO2        0.0939
    165 N           9.7000   55.1620   52.3000 N.am    3  GLY3       -0.1941
    166 CA         10.1060   53.7970   52.5670 C.3     3  GLY3        0.2014
    167 C          11.4490   53.5240   51.9170 C.2     3  GLY3        0.2639
    168 O          11.7670   54.1110   50.8770 O.2     3  GLY3       -0.2714
    169 N          12.2550   52.6660   52.5300 N.am    4  VAL4       -0.1963
    170 CA         13.5480   52.3380   51.9560 C.3     4  VAL4        0.1727
    171 C          13.5290   50.8930   51.4610 C.2     4  VAL4        0.2616
    172 O          12.9490   50.0000   52.0870 O.2     4  VAL4       -0.2715
    173 CB         14.7430   52.6850   52.9090 C.3     4  VAL4        0.0290
    174 CG2        14.2420   53.1710   54.2570 C.3     4  VAL4        0.0023
    175 CG1        15.7040   51.5220   53.0420 C.3     4  VAL4        0.0023
    176 N          14.0950   50.7000   50.2790 N.am    5  TYR5       -0.1974
    177 CA         14.1120   49.4100   49.6210 C.3     5  TYR5        0.1639
    178 C          15.5250   48.9230   49.3370 C.2     5  TYR5        0.2290
    179 O          16.4650   49.7100   49.2780 O.2     5  TYR5       -0.2864
    180 CB         13.3370   49.5210   48.2980 C.3     5  TYR5        0.0560
    181 CG         11.9260   50.0500   48.4530 C.ar    5  TYR5       -0.0198
    182 CD1        10.8290   49.2240   48.2440 C.ar    5  TYR5       -0.0009
    183 CD2        11.6920   51.3590   48.8610 C.ar    5  TYR5       -0.0009
    184 CE1         9.5390   49.6840   48.4400 C.ar    5  TYR5        0.0417
    185 CE2        10.4030   51.8290   49.0650 C.ar    5  TYR5        0.0417
    186 CZ          9.3320   50.9870   48.8540 C.ar    5  TYR5        0.1957
    187 OH          8.0540   51.4440   49.0640 O.3     5  TYR5       -0.2866
@<TRIPOS>UNITY_ATOM_ATTR
56 1
charge -1
89 1
charge -1
@<TRIPOS>BOND
     1     1     2    1
     2     2     3    1
     3     2     5    1
     4     3     4    2
     5     5     6    1
     6     6     7    2
     7     6     8    1
     8     7     9    1
     9     8    10    1
    10     9    10    2
    11    11    12    1
    12    12    13    1
    13    12    15    1
    14    13    14    2
    15    15    16    1
    16    16    18   ar
    17    16    17   ar
    18    17    19   ar
    19    18    20   ar
    20    19    21   ar
    21    20    21   ar
    22    21    22    1
    23    23    24    1
    24    24    25    1
    25    24    27    1
    26    25    26    2
    27    27    28    1
    28    28    29    2
    29    28    30   am
    30    31    32    1
    31    32    33    1
    32    32    35    1
    33    33    34    2
    34    35    36    1
    35    35    37    1
    36    38    39    1
    37    39    42    1
    38    39    40    1
    39    40    41    2
    40    42    43    1
    41    43    45   ar
    42    43    44   ar
    43    44    46   ar
    44    45    47   ar
    45    46    48   ar
    46    47    48   ar
    47    48    49    1
    48    50    51    1
    49    51    52    1
    50    51    54    1
    51    52    53    2
    52    52    58   am
    53    54    55    1
    54    55    56   ar
    55    55    57   ar
    56    58    59    1
    57    59    62    1
    58    59    60    1
    59    60    64   am
    60    60    61    2
    61    62    63    1
    62    64    65    1
    63    65    66    1
    64    65    68    1
    65    66    67    2
    66    66    70   am
    67    68    69    1
    68    69   149    1
    69    70    71    1
    70    71    72    1
    71    71    74    1
    72    72    73    2
    73    72    79   am
    74    74    75    1
    75    75    76    1
    76    76    78   am
    77    76    77    2
    78    79    80    1
    79    80    81    1
    80    81    82    2
    81    81    83   am
    82    83    84    1
    83    84    87    1
    84    84    85    1
    85    85    86    2
    86    85    91   am
    87    87    88    1
    88    88    89   ar
    89    88    90   ar
    90    91    92    1
    91    92    93    1
    92    92    95    1
    93    93    94    2
    94    95    96    1
    95    97    98    1
    96    98   101    1
    97    98    99    1
    98    99   100    2
    99    99   104   am
   100   101   103    1
   101   101   102    1
   102   104   105    1
   103   105   108    1
   104   105   106    1
   105   106   110   am
   106   106   107    2
   107   108   109    1
   108   110   111    1
   109   111   112    1
   110   111   114    1
   111   112   113    2
   112   112   124   am
   113   114   115    1
   114   115   116    2
   115   115   117    1
   116   116   118    1
   117   117   119    1
   118   117   120    1
   119   118   119    2
   120   119   121    1
   121   120   122    2
   122   121   123    2
   123   122   123    1
   124   124   125    1
   125   125   126    1
   126   126   128   am
   127   126   127    2
   128   128   129    1
   129   129   130    1
   130   129   132    1
   131   130   140   am
   132   130   131    2
   133   132   133    1
   134   133   135   ar
   135   133   134   ar
   136   134   136   ar
   137   135   137   ar
   138   136   138   ar
   139   137   138   ar
   140   138   139    1
   141   140   141    1
   142   141   142    1
   143   142   143    2
   144   142   144   am
   145   144   145    1
   146   145   146    1
   147   145   148    1
   148   146   147    2
   149   148   149    1
   150   150   151    1
   151   151   152    1
   152   151   154    1
   153   152   158   am
   154   152   153    2
   155   154   155    1
   156   155   157   am
   157   155   156    2
   158   158   159    1
   159   158   164    1
   160   159   162    1
   161   159   160    1
   162   160   165   am
   163   160   161    2
   164   162   163    1
   165   163   164    1
   166   165   166    1
   167   166   167    1
   168   167   168    2
   169   167   169   am
   170   169   170    1
   171   170   171    1
   172   170   173    1
   173   171   176   am
   174   171   172    2
   175   173   175    1
   176   173   174    1
   177   176   177    1
   178   177   180    1
   179   177   178    1
   180   178   179    2
   181   180   181    1
   182   181   182   ar
   183   181   183   ar
   184   182   184   ar
   185   183   185   ar
   186   184   186   ar
   187   185   186   ar
   188   186   187    1
