@<TRIPOS>MOLECULE
./1fkg/protein.pdb
 207 204 0 0 0
SMALL
GASTEIGER

@<TRIPOS>ATOM
      1 N         -30.7070   21.7170   -3.5330 N.3     1  TYR1       -0.2378
      2 CA        -30.4270   21.0070   -2.3000 C.3     1  TYR1        0.1491
      3 C         -31.6880   20.8200   -1.4470 C.2     1  TYR1        0.2387
      4 O         -32.6410   21.6040   -1.6010 O.2     1  TYR1       -0.2736
      5 CB        -29.3300   21.7720   -1.4880 C.3     1  TYR1        0.0527
      6 CG        -29.7350   23.0810   -0.8280 C.ar    1  TYR1       -0.0201
      7 CD2       -30.3150   23.0450    0.4440 C.ar    1  TYR1       -0.0011
      8 CD1       -29.5930   24.2980   -1.4770 C.ar    1  TYR1       -0.0011
      9 CE2       -30.7440   24.2160    1.0450 C.ar    1  TYR1        0.0363
     10 CE1       -30.0340   25.4820   -0.8770 C.ar    1  TYR1        0.0363
     11 CZ        -30.6080   25.4290    0.3840 C.ar    1  TYR1        0.1337
     12 OH        -31.0430   26.5860    1.0010 O.3     1  TYR1       -0.5055
     13 H         -31.4750   22.3250   -3.5260 H       1  TYR1        0.1418
     14 HH        -30.9950   27.3280    0.3880 H       1  TYR1        0.2922
     15 N         -31.6710   19.8020   -0.5830 N.am    2  THR2       -0.2953
     16 CA        -32.6500   19.6220    0.4880 C.3     2  THR2        0.1757
     17 C         -31.7810   19.2920    1.6920 C.2     2  THR2        0.2431
     18 O         -30.9340   18.4000    1.6250 O.2     2  THR2       -0.2732
     19 CB        -33.5920   18.4630    0.2680 C.3     2  THR2        0.1373
     20 OG1       -34.3150   18.7300   -0.9300 O.3     2  THR2       -0.3823
     21 CG2       -34.5390   18.3060    1.4390 C.3     2  THR2        0.0340
     22 H         -30.9550   19.1360   -0.6650 H       2  THR2        0.1499
     23 HG1       -34.7380   17.9170   -1.2270 H       2  THR2        0.2104
     24 N         -31.8640   20.0740    2.7430 N.am    3  GLY3       -0.2963
     25 CA        -31.1040   19.8670    3.9840 C.3     3  GLY3        0.1627
     26 C         -32.0070   19.2310    5.0230 C.2     3  GLY3        0.2288
     27 O         -33.1120   19.7140    5.2690 O.2     3  GLY3       -0.2864
     28 H         -32.4900   20.8210    2.7280 H       3  GLY3        0.1499
     29 N         -35.1370   20.8120    6.9490 N.3     1  PHE1       -0.2378
     30 CA        -35.1590   22.1650    7.4850 C.3     1  PHE1        0.1491
     31 C         -35.1880   23.1960    6.3550 C.2     1  PHE1        0.2386
     32 O         -35.4930   24.3700    6.5930 O.2     1  PHE1       -0.2736
     33 CB        -33.9490   22.3950    8.4110 C.3     1  PHE1        0.0527
     34 CG        -32.5490   22.0700    7.9070 C.ar    1  PHE1       -0.0203
     35 CD1       -31.8450   23.0020    7.1410 C.ar    1  PHE1       -0.0042
     36 CD2       -31.9600   20.8630    8.2830 C.ar    1  PHE1       -0.0042
     37 CE1       -30.5450   22.7190    6.7640 C.ar    1  PHE1       -0.0003
     38 CE2       -30.6540   20.6050    7.8940 C.ar    1  PHE1       -0.0003
     39 CZ        -29.9480   21.5270    7.1390 C.ar    1  PHE1       -0.0000
     40 H         -34.3300   20.4470    6.5360 H       1  PHE1        0.1418
     41 N         -34.8300   22.8060    5.1310 N.am    2  ASP2       -0.2969
     42 CA        -34.8970   23.7270    3.9810 C.3     2  ASP2        0.1542
     43 C         -34.6080   22.9870    2.6880 C.2     2  ASP2        0.2410
     44 O         -33.9640   21.9500    2.7490 O.2     2  ASP2       -0.2733
     45 CB        -33.8760   24.8820    4.0500 C.3     2  ASP2        0.0706
     46 CG        -34.2350   25.9860    3.0420 C.2     2  ASP2        0.0525
     47 OD2       -35.3780   26.4300    3.0260 O.co2   2  ASP2       -0.5491
     48 OD1       -33.4190   26.3830    2.2320 O.co2   2  ASP2       -0.5491
     49 H         -34.4650   21.9070    4.9850 H       2  ASP2        0.1499
     50 N         -35.0970   23.4970    1.5470 N.am    3  SER3       -0.2960
     51 CA        -34.9000   22.9030    0.2190 C.3     3  SER3        0.1665
     52 CB        -35.1090   23.9480   -0.8640 C.2     3  SER3        0.2292
     53 OG        -36.1200   24.6560   -0.8460 O.2     3  SER3       -0.2864
     54 C         -35.8870   21.7490   -0.0420 C.3     3  SER3        0.1647
     55 O         -35.6220   21.1740   -1.3130 O.3     3  SER3       -0.3798
     56 H         -35.6220   24.3250    1.5750 H       3  SER3        0.1499
     57 H         -34.8970   20.5280   -1.2130 H       3  SER3        0.2105
     58 N         -38.5200   25.7590   -3.5520 N.3     1  ARG1       -0.2391
     59 CA        -38.6470   27.0750   -4.1510 C.3     1  ARG1        0.1332
     60 C         -38.4880   27.0410   -5.6790 C.2     1  ARG1        0.2241
     61 O         -38.7830   28.0160   -6.3850 O.2     1  ARG1       -0.2868
     62 CB        -37.6160   28.0290   -3.6110 C.3     1  ARG1        0.0286
     63 CG        -37.5660   28.0170   -2.1040 C.3     1  ARG1        0.0447
     64 CD        -36.6010   29.0850   -1.6060 C.3     1  ARG1        0.1739
     65 NE        -35.1720   28.8970   -1.7280 N.pl3   1  ARG1       -0.2651
     66 CZ        -34.4610   28.2290   -0.8100 C.cat   1  ARG1        0.3417
     67 NH2       -35.0770   27.6200    0.2080 N.pl3   1  ARG1       -0.2918
     68 NH1       -33.1440   28.1000   -0.9520 N.pl3   1  ARG1       -0.2918
     69 H         -37.6440   25.4460   -3.2600 H       1  ARG1        0.1418
     70 HE        -34.7090   29.2700   -2.5060 H       1  ARG1        0.2586
     71 HH21      -36.0720   27.6520    0.2960 H       1  ARG1        0.2545
     72 HH22      -34.5400   27.1200    0.8800 H       1  ARG1        0.2545
     73 HH11      -32.6850   28.5000   -1.7450 H       1  ARG1        0.2545
     74 HH12      -32.6140   27.6010   -0.2650 H       1  ARG1        0.2545
     75 N         -29.7400   27.1890   -5.9070 N.3     1  PHE1       -0.2388
     76 CA        -29.0170   28.0760   -5.0290 C.3     1  PHE1        0.1374
     77 C         -27.6490   28.2890   -5.6600 C.2     1  PHE1        0.2244
     78 O         -27.0540   27.3190   -6.1200 O.2     1  PHE1       -0.2868
     79 CB        -28.9080   27.4040   -3.6600 C.3     1  PHE1        0.0514
     80 CG        -28.0830   28.1550   -2.6510 C.ar    1  PHE1       -0.0203
     81 CD2       -28.5850   29.2880   -2.0550 C.ar    1  PHE1       -0.0042
     82 CD1       -26.8280   27.6980   -2.3330 C.ar    1  PHE1       -0.0042
     83 CE2       -27.8170   29.9620   -1.1350 C.ar    1  PHE1       -0.0003
     84 CE1       -26.0750   28.3860   -1.4140 C.ar    1  PHE1       -0.0003
     85 CZ        -26.5600   29.5230   -0.8060 C.ar    1  PHE1       -0.0000
     86 H         -29.4690   26.2550   -5.9410 H       1  PHE1        0.1418
     87 N         -23.5380   29.4940   -5.1230 N.3     1  PHE1       -0.2388
     88 CA        -22.5010   30.0030   -4.2400 C.3     1  PHE1        0.1374
     89 C         -21.1850   29.9200   -4.9920 C.2     1  PHE1        0.2244
     90 O         -21.0530   29.0280   -5.8500 O.2     1  PHE1       -0.2868
     91 CB        -22.4030   29.1870   -2.9390 C.3     1  PHE1        0.0514
     92 CG        -21.7900   27.7910   -3.0450 C.ar    1  PHE1       -0.0203
     93 CD1       -22.5670   26.7320   -3.4540 C.ar    1  PHE1       -0.0042
     94 CD2       -20.4590   27.5850   -2.7030 C.ar    1  PHE1       -0.0042
     95 CE1       -22.0190   25.4740   -3.5160 C.ar    1  PHE1       -0.0003
     96 CE2       -19.9110   26.3060   -2.7670 C.ar    1  PHE1       -0.0003
     97 CZ        -20.6990   25.2510   -3.1720 C.ar    1  PHE1       -0.0000
     98 H         -23.3220   28.7660   -5.7490 H       1  PHE1        0.1418
     99 N         -18.5430   31.6900    1.9520 N.3     1  GLU1       -0.2380
    100 CA        -19.8940   32.1110    2.2250 C.3     1  GLU1        0.1451
    101 C         -20.8750   30.9740    2.4900 C.2     1  GLU1        0.2383
    102 O         -22.0460   31.2390    2.6920 O.2     1  GLU1       -0.2736
    103 CB        -20.3990   32.9380    1.0930 C.3     1  GLU1        0.0323
    104 CG        -20.4320   32.2340   -0.2620 C.3     1  GLU1        0.0436
    105 CD        -20.9540   33.1310   -1.3720 C.2     1  GLU1        0.0504
    106 OE2       -21.2460   34.3020   -1.1090 O.co2   1  GLU1       -0.5492
    107 OE1       -21.0480   32.6800   -2.5090 O.co2   1  GLU1       -0.5492
    108 H         -18.3280   31.2270    1.1220 H       1  GLU1        0.1418
    109 N         -20.4260   29.7310    2.4340 N.am    2  VAL2       -0.2972
    110 CA        -21.2070   28.5760    2.8280 C.3     2  VAL2        0.1485
    111 C         -20.4350   27.8320    3.9270 C.2     2  VAL2        0.2406
    112 O         -19.2760   28.1810    4.2470 O.2     2  VAL2       -0.2733
    113 CB        -21.4620   27.6210    1.6300 C.3     2  VAL2        0.0269
    114 CG1       -22.5150   28.3010    0.7810 C.3     2  VAL2        0.0022
    115 CG2       -20.1760   27.2740    0.8630 C.3     2  VAL2        0.0022
    116 H         -19.4730   29.5780    2.2960 H       2  VAL2        0.1499
    117 N         -21.0450   26.8180    4.5390 N.am    3  ILE3       -0.2980
    118 CA        -20.3970   26.0960    5.6100 C.3     3  ILE3        0.1368
    119 C         -19.2650   25.2280    5.0410 C.2     3  ILE3        0.2266
    120 O         -19.2760   24.7710    3.8690 O.2     3  ILE3       -0.2865
    121 CB        -21.4450   25.2030    6.4400 C.3     3  ILE3        0.0256
    122 CG1       -22.3620   24.3610    5.5450 C.3     3  ILE3        0.0021
    123 CG2       -22.2920   26.1490    7.3000 C.3     3  ILE3        0.0022
    124 CD1       -23.1720   23.2440    6.2580 C.3     3  ILE3        0.0001
    125 H         -21.9460   26.5780    4.2470 H       3  ILE3        0.1498
    126 N         -19.7060   22.0550    2.9660 N.3     1  TRP1       -0.2388
    127 CA        -20.1230   22.3260    1.5750 C.3     1  TRP1        0.1375
    128 C         -18.9160   22.6420    0.6720 C.2     1  TRP1        0.2244
    129 O         -18.7010   21.9450   -0.3420 O.2     1  TRP1       -0.2868
    130 CB        -21.1220   23.5030    1.5330 C.3     1  TRP1        0.0529
    131 CG        -22.5630   23.0140    1.5130 C.ar    1  TRP1       -0.0020
    132 CD1       -23.0830   22.1960    2.5010 C.ar    1  TRP1        0.0681
    133 CD2       -23.4890   23.2840    0.5190 C.ar    1  TRP1        0.0131
    134 NE1       -24.3240   21.9520    2.1260 N.ar    1  TRP1       -0.3523
    135 CE2       -24.6010   22.5750    0.9580 C.ar    1  TRP1        0.0563
    136 CE3       -23.5110   24.0200   -0.6640 C.ar    1  TRP1        0.0012
    137 CZ2       -25.7610   22.5900    0.2190 C.ar    1  TRP1        0.0170
    138 CZ3       -24.6660   24.0280   -1.3960 C.ar    1  TRP1        0.0001
    139 CH2       -25.7740   23.3230   -0.9590 C.ar    1  TRP1        0.0015
    140 H         -19.8160   22.7640    3.6310 H       1  TRP1        0.1418
    141 HE1       -24.9550   21.4040    2.6340 H       1  TRP1        0.1660
    142 N         -22.4450   24.2020   11.7760 N.3     1  TYR1       -0.2388
    143 CA        -22.7260   25.3260   12.6780 C.3     1  TYR1        0.1374
    144 C         -22.2110   25.1600   14.1320 C.2     1  TYR1        0.2244
    145 O         -22.4430   26.0050   15.0220 O.2     1  TYR1       -0.2868
    146 CB        -24.2460   25.5350   12.6360 C.3     1  TYR1        0.0514
    147 CG        -24.7320   25.9690   11.2700 C.ar    1  TYR1       -0.0201
    148 CD2       -24.4340   27.2480   10.7800 C.ar    1  TYR1       -0.0011
    149 CD1       -25.4340   25.0650   10.4840 C.ar    1  TYR1       -0.0011
    150 CE2       -24.8240   27.6230    9.5040 C.ar    1  TYR1        0.0363
    151 CE1       -25.8210   25.4350    9.2130 C.ar    1  TYR1        0.0363
    152 CZ        -25.5170   26.6980    8.7360 C.ar    1  TYR1        0.1337
    153 OH        -25.9130   27.0200    7.4540 O.3     1  TYR1       -0.5055
    154 H         -22.9780   23.3920   11.9040 H       1  TYR1        0.1418
    155 HH        -26.0950   26.1810    7.0180 H       1  TYR1        0.2922
    156 N         -27.9530   27.1760   14.1620 N.3     1  HIS1       -0.2388
    157 CA        -28.4060   28.3510   13.4310 C.3     1  HIS1        0.1388
    158 C         -29.6580   28.7580   14.1710 C.2     1  HIS1        0.2245
    159 O         -30.6130   27.9590   14.1170 O.2     1  HIS1       -0.2868
    160 CB        -28.7570   28.0120   11.9920 C.3     1  HIS1        0.0672
    161 CG        -29.0610   29.2460   11.1430 C.2     1  HIS1        0.0392
    162 ND1       -30.1980   29.9580   11.0440 N.pl3   1  HIS1       -0.3185
    163 CD2       -28.1330   29.8490   10.3190 C.2     1  HIS1        0.0692
    164 CE1       -29.9920   30.9520   10.2110 C.3     1  HIS1        0.1815
    165 NE2       -28.7450   30.8740    9.7840 N.pl3   1  HIS1       -0.3146
    166 H         -28.5750   26.4490   14.3790 H       1  HIS1        0.1418
    167 HD1       -31.0360   29.8410   11.5520 H       1  HIS1        0.1481
    168 HE2       -28.3410   31.5030    9.1430 H       1  HIS1        0.1484
    169 N         -33.2910   27.2540   13.7440 N.3     1  ILE1       -0.2380
    170 CA        -33.3940   26.2040   12.7340 C.3     1  ILE1        0.1447
    171 C         -32.5690   24.9710   13.0110 C.2     1  ILE1        0.2383
    172 O         -33.0550   23.8450   12.9040 O.2     1  ILE1       -0.2736
    173 CB        -33.0210   26.8330   11.3490 C.3     1  ILE1        0.0246
    174 CG1       -34.0080   27.9280   11.0530 C.3     1  ILE1        0.0019
    175 CG2       -33.1560   25.8470   10.1870 C.3     1  ILE1        0.0019
    176 CD1       -33.5260   28.9240   10.0060 C.3     1  ILE1        0.0001
    177 H         -32.5050   27.8280   13.7790 H       1  ILE1        0.1418
    178 N         -31.2840   25.1370   13.3180 N.am    2  ILE2       -0.2982
    179 CA        -30.3970   23.9870   13.5110 C.3     2  ILE2        0.1368
    180 C         -30.0640   24.0510   14.9890 C.2     2  ILE2        0.2266
    181 O         -29.7090   25.1480   15.4130 O.2     2  ILE2       -0.2865
    182 CB        -29.0790   24.1180   12.6820 C.3     2  ILE2        0.0256
    183 CG1       -29.3640   24.3590   11.2050 C.3     2  ILE2        0.0021
    184 CG2       -28.2540   22.8640   12.8480 C.3     2  ILE2        0.0022
    185 CD1       -30.1470   23.2350   10.5160 C.3     2  ILE2        0.0001
    186 H         -30.9760   26.0190   13.6050 H       2  ILE2        0.1498
    187 N         -25.5590   17.4070    9.9100 N.3     1  LEU1       -0.2391
    188 CA        -26.4860   17.8000    8.8700 C.3     1  LEU1        0.1330
    189 C         -26.3780   16.8460    7.6740 C.2     1  LEU1        0.2241
    190 O         -25.3180   16.2830    7.3970 O.2     1  LEU1       -0.2868
    191 CB        -26.1550   19.2490    8.4880 C.3     1  LEU1        0.0251
    192 CG        -26.2690   20.2870    9.5920 C.3     1  LEU1        0.0018
    193 CD1       -25.9740   21.6360    9.0000 C.3     1  LEU1        0.0001
    194 CD2       -27.6700   20.2500   10.2350 C.3     1  LEU1        0.0001
    195 H         -24.5940   17.4980    9.7550 H       1  LEU1        0.1418
    196 N         -27.2400   16.7180    3.6680 N.3     1  PHE1       -0.2388
    197 CA        -27.7300   17.4880    2.5360 C.3     1  PHE1        0.1374
    198 C         -27.8230   16.5830    1.3010 C.2     1  PHE1        0.2244
    199 O         -26.9350   15.7730    1.0470 O.2     1  PHE1       -0.2868
    200 CB        -26.7880   18.6300    2.2190 C.3     1  PHE1        0.0514
    201 CG        -26.9040   19.8340    3.0990 C.ar    1  PHE1       -0.0203
    202 CD2       -26.1450   19.9190    4.2710 C.ar    1  PHE1       -0.0042
    203 CD1       -27.7660   20.8520    2.7380 C.ar    1  PHE1       -0.0042
    204 CE2       -26.2720   21.0350    5.0590 C.ar    1  PHE1       -0.0003
    205 CE1       -27.8790   21.9650    3.5430 C.ar    1  PHE1       -0.0003
    206 CZ        -27.1350   22.0550    4.7000 C.ar    1  PHE1       -0.0000
    207 H         -26.3620   16.2860    3.6220 H       1  PHE1        0.1418
@<TRIPOS>UNITY_ATOM_ATTR
47 1
charge -1
106 1
charge -1
@<TRIPOS>BOND
     1     1    13    1
     2     1     2    1
     3     2     5    1
     4     2     3    1
     5     3     4    2
     6     3    15   am
     7     5     6    1
     8     6     8   ar
     9     6     7   ar
    10     7     9   ar
    11     8    10   ar
    12     9    11   ar
    13    10    11   ar
    14    11    12    1
    15    12    14    1
    16    15    22    1
    17    15    16    1
    18    16    19    1
    19    16    17    1
    20    17    18    2
    21    17    24   am
    22    19    20    1
    23    19    21    1
    24    20    23    1
    25    24    28    1
    26    24    25    1
    27    25    26    1
    28    26    27    2
    29    29    40    1
    30    29    30    1
    31    30    31    1
    32    30    33    1
    33    31    41   am
    34    31    32    2
    35    33    34    1
    36    34    35   ar
    37    34    36   ar
    38    35    37   ar
    39    36    38   ar
    40    37    39   ar
    41    38    39   ar
    42    41    42    1
    43    41    49    1
    44    42    43    1
    45    42    45    1
    46    43    50   am
    47    43    44    2
    48    45    46    1
    49    46    48   ar
    50    46    47   ar
    51    50    51    1
    52    50    56    1
    53    51    52    1
    54    51    54    1
    55    52    53    2
    56    54    55    1
    57    55    57    1
    58    58    59    1
    59    58    69    1
    60    59    60    1
    61    59    62    1
    62    60    61    2
    63    62    63    1
    64    63    64    1
    65    64    65    1
    66    65    70    1
    67    65    66    1
    68    66    68    2
    69    66    67    1
    70    67    71    1
    71    67    72    1
    72    68    73    1
    73    68    74    1
    74    75    86    1
    75    75    76    1
    76    76    77    1
    77    76    79    1
    78    77    78    2
    79    79    80    1
    80    80    82   ar
    81    80    81   ar
    82    81    83   ar
    83    82    84   ar
    84    83    85   ar
    85    84    85   ar
    86    87    98    1
    87    87    88    1
    88    88    89    1
    89    88    91    1
    90    89    90    2
    91    91    92    1
    92    92    93   ar
    93    92    94   ar
    94    93    95   ar
    95    94    96   ar
    96    95    97   ar
    97    96    97   ar
    98    99   108    1
    99    99   100    1
   100   100   103    1
   101   100   101    1
   102   101   109   am
   103   101   102    2
   104   103   104    1
   105   104   105    1
   106   105   107   ar
   107   105   106   ar
   108   109   116    1
   109   109   110    1
   110   110   113    1
   111   110   111    1
   112   111   112    2
   113   111   117   am
   114   113   114    1
   115   113   115    1
   116   117   125    1
   117   117   118    1
   118   118   119    1
   119   118   121    1
   120   119   120    2
   121   121   122    1
   122   121   123    1
   123   122   124    1
   124   126   127    1
   125   126   140    1
   126   127   128    1
   127   127   130    1
   128   128   129    2
   129   130   131    1
   130   131   133   ar
   131   131   132   ar
   132   132   134   ar
   133   133   136   ar
   134   133   135   ar
   135   134   135   ar
   136   134   141    1
   137   135   137   ar
   138   136   138   ar
   139   137   139   ar
   140   138   139   ar
   141   142   154    1
   142   142   143    1
   143   143   146    1
   144   143   144    1
   145   144   145    2
   146   146   147    1
   147   147   149   ar
   148   147   148   ar
   149   148   150   ar
   150   149   151   ar
   151   150   152   ar
   152   151   152   ar
   153   152   153    1
   154   153   155    1
   155   156   157    1
   156   156   166    1
   157   157   160    1
   158   157   158    1
   159   158   159    2
   160   160   161    1
   161   161   163    2
   162   161   162    1
   163   162   164    1
   164   162   167    1
   165   163   165    1
   166   164   165    1
   167   165   168    1
   168   169   170    1
   169   169   177    1
   170   170   173    1
   171   170   171    1
   172   171   172    2
   173   171   178   am
   174   173   175    1
   175   173   174    1
   176   174   176    1
   177   178   179    1
   178   178   186    1
   179   179   182    1
   180   179   180    1
   181   180   181    2
   182   182   183    1
   183   182   184    1
   184   183   185    1
   185   187   188    1
   186   187   195    1
   187   188   189    1
   188   188   191    1
   189   189   190    2
   190   191   192    1
   191   192   193    1
   192   192   194    1
   193   196   197    1
   194   196   207    1
   195   197   198    1
   196   197   200    1
   197   198   199    2
   198   200   201    1
   199   201   203   ar
   200   201   202   ar
   201   202   204   ar
   202   203   205   ar
   203   204   206   ar
   204   205   206   ar
