@<TRIPOS>MOLECULE
./1a4k/protein.pdb
 181 183 0 0 0
SMALL
GASTEIGER

@<TRIPOS>ATOM
      1 N          46.9740   49.9130    2.7640 N.3     1  THR1       -0.1203
      2 CA         48.0320   49.6680    1.7770 C.3     1  THR1        0.1994
      3 C          48.0160   50.6240    0.5830 C.2     1  THR1        0.2618
      4 O          48.5700   50.3160   -0.4720 O.2     1  THR1       -0.2717
      5 CB         47.9580   48.2350    1.2310 C.3     1  THR1        0.1784
      6 OG1        46.6450   48.0020    0.7050 O.3     1  THR1       -0.2211
      7 CG2        48.2640   47.2190    2.3300 C.3     1  THR1        0.0376
      8 N          47.3840   51.7790    0.7430 N.am    2  ASN2       -0.1960
      9 CA         47.3290   52.7540   -0.3360 C.3     2  ASN2        0.1819
     10 C          48.1120   53.9910    0.0290 C.2     2  ASN2        0.2621
     11 O          48.0630   55.0090   -0.6740 O.2     2  ASN2       -0.2715
     12 CB         45.8890   53.1350   -0.6310 C.3     2  ASN2        0.1195
     13 CG         45.2010   52.1060   -1.4760 C.2     2  ASN2        0.2630
     14 OD1        44.1220   51.6270   -1.1330 O.2     2  ASN2       -0.2716
     15 ND2        45.8290   51.7400   -2.5890 N.am    2  ASN2       -0.0877
     16 N          48.8390   53.8870    1.1350 N.am    3  TYR3       -0.1960
     17 CA         49.6410   54.9850    1.6440 C.3     3  TYR3        0.1771
     18 C          50.8000   54.4770    2.4740 C.2     3  TYR3        0.2620
     19 O          50.8030   53.3310    2.9280 O.2     3  TYR3       -0.2715
     20 CB         48.7960   55.8740    2.5470 C.3     3  TYR3        0.0574
     21 CG         47.6620   56.5750    1.8630 C.ar    3  TYR3       -0.0198
     22 CD1        47.8910   57.7270    1.1170 C.ar    3  TYR3       -0.0009
     23 CD2        46.3560   56.1200    2.0010 C.ar    3  TYR3       -0.0009
     24 CE1        46.8550   58.4180    0.5270 C.ar    3  TYR3        0.0417
     25 CE2        45.3030   56.8010    1.4170 C.ar    3  TYR3        0.0417
     26 CZ         45.5590   57.9540    0.6810 C.ar    3  TYR3        0.1957
     27 OH         44.5240   58.6590    0.1070 O.3     3  TYR3       -0.2866
     28 N          51.7790   55.3490    2.6750 N.am    4  GLY4       -0.1940
     29 CA         52.9090   55.0150    3.5220 C.3     4  GLY4        0.2014
     30 C          52.5880   55.6880    4.8510 C.2     4  GLY4        0.2639
     31 O          52.1060   56.8330    4.8780 O.2     4  GLY4       -0.2714
     32 N          52.8190   54.9920    5.9580 N.am    5  MET5       -0.1963
     33 CA         52.5340   55.5830    7.2560 C.3     5  MET5        0.1736
     34 C          53.7530   56.2810    7.8470 C.2     5  MET5        0.2616
     35 O          54.7480   55.6450    8.1960 O.2     5  MET5       -0.2715
     36 CB         52.0010   54.5280    8.2180 C.3     5  MET5        0.0427
     37 CG         50.5170   54.7140    8.5200 C.3     5  MET5        0.0599
     38 SD         49.5670   53.1760    8.4370 S.3     5  MET5       -0.1393
     39 CE         48.6300   53.3060    9.9650 C.3     5  MET5        0.0692
     40 N          53.6480   57.6050    7.9380 N.am    6  ASN6       -0.1972
     41 CA         54.6930   58.4740    8.4570 C.3     6  ASN6        0.1688
     42 C          54.4210   58.9600    9.8880 C.2     6  ASN6        0.2292
     43 O          53.2620   59.1110   10.3030 O.2     6  ASN6       -0.2864
     44 CB         54.8400   59.6910    7.5410 C.3     6  ASN6        0.1181
     45 CG         55.3510   59.3230    6.1730 C.2     6  ASN6        0.2629
     46 OD1        56.4710   59.6750    5.7950 O.2     6  ASN6       -0.2716
     47 ND2        54.5350   58.6000    5.4200 N.am    6  ASN6       -0.0877
     48 N          59.8520   65.3980   11.0150 N.3     1  TRP1       -0.1241
     49 CA         59.6130   64.0870   10.4240 C.3     1  TRP1        0.1602
     50 C          60.5210   63.0460   11.0920 C.2     1  TRP1        0.2264
     51 O          61.7310   63.2490   11.2200 O.2     1  TRP1       -0.2867
     52 CB         59.8710   64.1680    8.9140 C.3     1  TRP1        0.0510
     53 CG         59.4480   62.9680    8.1220 C.2     1  TRP1       -0.0168
     54 CD1        58.1780   62.6260    7.7750 C.3     1  TRP1        0.1477
     55 CD2        60.3050   61.9600    7.5640 C.ar    1  TRP1        0.0113
     56 NE1        58.1860   61.4640    7.0350 N.2     1  TRP1       -0.2659
     57 CE2        59.4780   61.0340    6.8920 C.ar    1  TRP1        0.0758
     58 CE3        61.6930   61.7500    7.5690 C.ar    1  TRP1        0.0009
     59 CZ2        59.9890   59.9100    6.2290 C.ar    1  TRP1        0.0187
     60 CZ3        62.2060   60.6310    6.9060 C.ar    1  TRP1        0.0001
     61 CH2        61.3510   59.7260    6.2450 C.ar    1  TRP1        0.0015
     62 N          59.1220   56.7700    8.3430 N.3     1  TRP1       -0.1227
     63 CA         57.8770   56.1190    7.9880 C.3     1  TRP1        0.1734
     64 C          58.0100   54.6080    7.8790 C.2     1  TRP1        0.2595
     65 O          59.1120   54.0640    7.9110 O.2     1  TRP1       -0.2718
     66 CB         57.3710   56.6690    6.6480 C.3     1  TRP1        0.0524
     67 CG         58.2450   56.2860    5.4620 C.2     1  TRP1       -0.0167
     68 CD1        59.5160   56.7240    5.2040 C.3     1  TRP1        0.1477
     69 CD2        57.8970   55.4110    4.3760 C.ar    1  TRP1        0.0113
     70 NE1        59.9760   56.1820    4.0340 N.2     1  TRP1       -0.2659
     71 CE2        59.0070   55.3730    3.5000 C.ar    1  TRP1        0.0758
     72 CE3        56.7550   54.6570    4.0570 C.ar    1  TRP1        0.0009
     73 CZ2        59.0120   54.6070    2.3180 C.ar    1  TRP1        0.0187
     74 CZ3        56.7600   53.8980    2.8850 C.ar    1  TRP1        0.0001
     75 CH2        57.8850   53.8820    2.0300 C.ar    1  TRP1        0.0015
     76 N          56.8670   53.9390    7.7530 N.am    2  ILE2       -0.1966
     77 CA         56.8510   52.4990    7.6030 C.3     2  ILE2        0.1727
     78 C          56.0100   52.0800    6.3930 C.2     2  ILE2        0.2616
     79 O          54.9110   52.5910    6.1660 O.2     2  ILE2       -0.2715
     80 CB         56.3040   51.7880    8.8660 C.3     2  ILE2        0.0290
     81 CG1        56.4320   50.2730    8.6900 C.3     2  ILE2        0.0022
     82 CG2        54.8390   52.1620    9.1010 C.3     2  ILE2        0.0023
     83 CD1        56.6770   49.5340    9.9640 C.3     2  ILE2        0.0001
     84 N          56.5670   51.1500    5.6210 N.am    3  ASN3       -0.1958
     85 CA         55.9440   50.5800    4.4300 C.3     3  ASN3        0.1819
     86 C          54.8380   49.6230    4.9140 C.2     3  ASN3        0.2622
     87 O          55.1140   48.6530    5.6170 O.2     3  ASN3       -0.2715
     88 CB         57.0200   49.8270    3.6420 C.3     3  ASN3        0.1195
     89 CG         56.5740   49.4390    2.2580 C.2     3  ASN3        0.2630
     90 OD1        57.2240   49.7700    1.2670 O.2     3  ASN3       -0.2716
     91 ND2        55.4610   48.7290    2.1770 N.am    3  ASN3       -0.0877
     92 N          53.5890   49.9030    4.5570 N.am    4  THR4       -0.1937
     93 CA         52.4720   49.0680    4.9970 C.3     4  THR4        0.2028
     94 C          52.2190   47.8650    4.0890 C.2     4  THR4        0.2642
     95 O          51.3350   47.0530    4.3500 O.2     4  THR4       -0.2714
     96 CB         51.1830   49.8980    5.1030 C.3     4  THR4        0.1808
     97 OG1        50.8310   50.4090    3.8130 O.3     4  THR4       -0.2208
     98 CG2        51.3860   51.0790    6.0520 C.3     4  THR4        0.0379
     99 N          53.0180   47.7520    3.0350 N.am    5  TYR5       -0.1973
    100 CA         52.9090   46.6720    2.0640 C.3     5  TYR5        0.1639
    101 C          54.0030   45.6250    2.3290 C.2     5  TYR5        0.2290
    102 O          53.7360   44.4270    2.3410 O.2     5  TYR5       -0.2864
    103 CB         53.0470   47.2840    0.6720 C.3     5  TYR5        0.0560
    104 CG         52.8670   46.3630   -0.5140 C.ar    5  TYR5       -0.0198
    105 CD2        51.5910   46.0120   -0.9690 C.ar    5  TYR5       -0.0009
    106 CD1        53.9710   45.9430   -1.2600 C.ar    5  TYR5       -0.0009
    107 CE2        51.4230   45.2750   -2.1450 C.ar    5  TYR5        0.0417
    108 CE1        53.8150   45.2130   -2.4260 C.ar    5  TYR5        0.0417
    109 CZ         52.5430   44.8840   -2.8680 C.ar    5  TYR5        0.1957
    110 OH         52.4040   44.1800   -4.0430 O.3     5  TYR5       -0.2866
    111 N          49.3250   59.6240    6.6320 N.3     1  GLN1       -0.1231
    112 CA         49.3080   58.8050    5.4310 C.3     1  GLN1        0.1698
    113 C          49.8240   59.6680    4.2800 C.2     1  GLN1        0.2592
    114 O          49.3480   60.7900    4.0870 O.2     1  GLN1       -0.2718
    115 CB         47.8850   58.3180    5.1610 C.3     1  GLN1        0.0381
    116 CG         47.5300   57.1060    6.0000 C.3     1  GLN1        0.0905
    117 CD         46.0720   56.7260    5.9190 C.2     1  GLN1        0.2608
    118 OE1        45.2050   57.5820    5.7520 O.2     1  GLN1       -0.2717
    119 NE2        45.7910   55.4310    6.0450 N.am    1  GLN1       -0.0878
    120 N          50.8150   59.1700    3.5410 N.am    2  ALA2       -0.1966
    121 CA         51.3740   59.9290    2.4200 C.3     2  ALA2        0.1728
    122 C          51.3260   59.1370    1.1250 C.2     2  ALA2        0.2616
    123 O          51.4440   57.9070    1.1270 O.2     2  ALA2       -0.2715
    124 CB         52.8050   60.3380    2.7180 C.3     2  ALA2        0.0334
    125 N          51.1540   59.8530    0.0170 N.am    3  GLU3       -0.1963
    126 CA         51.0830   59.2360   -1.3020 C.3     3  GLU3        0.1731
    127 C          52.4400   59.3040   -1.9980 C.2     3  GLU3        0.2616
    128 O          53.0960   60.3490   -2.0120 O.2     3  GLU3       -0.2715
    129 CB         50.0160   59.9360   -2.1580 C.3     3  GLU3        0.0370
    130 CG         49.5780   59.1400   -3.3880 C.3     3  GLU3        0.0440
    131 CD         50.3990   59.4760   -4.6270 C.2     3  GLU3        0.0504
    132 OE2        50.6950   60.6720   -4.8510 O.co2   3  GLU3       -0.5492
    133 OE1        50.7540   58.5470   -5.3770 O.co2   3  GLU3       -0.5492
    134 N          52.8340   58.1740   -2.5790 N.am    4  ARG4       -0.1963
    135 CA         54.1010   58.0280   -3.2800 C.3     4  ARG4        0.1729
    136 C          54.3920   59.0390   -4.3920 C.2     4  ARG4        0.2616
    137 O          55.3300   59.8190   -4.2860 O.2     4  ARG4       -0.2715
    138 CB         54.2050   56.6160   -3.8610 C.3     4  ARG4        0.0348
    139 CG         55.6390   56.1570   -4.0960 C.3     4  ARG4        0.0492
    140 CD         55.6900   54.7110   -4.5520 C.3     4  ARG4        0.2205
    141 NE         54.9780   54.5380   -5.8140 N.pl3   4  ARG4       -0.0865
    142 CZ         55.4860   54.8620   -6.9990 C.cat   4  ARG4        0.5346
    143 NH2        56.7090   55.3740   -7.0800 N.pl3   4  ARG4        0.1354
    144 NH1        54.7690   54.6880   -8.1010 N.pl3   4  ARG4        0.1354
    145 N          53.6000   59.0250   -5.4570 N.am    5  LEU5       -0.1977
    146 CA         53.8310   59.9270   -6.5810 C.3     5  LEU5        0.1596
    147 C          53.8860   61.4380   -6.2870 C.2     5  LEU5        0.2287
    148 O          54.7500   62.1390   -6.8150 O.2     5  LEU5       -0.2864
    149 CB         52.8010   59.6440   -7.6770 C.3     5  LEU5        0.0297
    150 CG         53.1830   58.6260   -8.7710 C.3     5  LEU5        0.0022
    151 CD2        54.4560   57.8740   -8.3940 C.3     5  LEU5        0.0001
    152 CD1        52.0250   57.6430   -8.9860 C.3     5  LEU5        0.0001
    153 N          54.1790   62.7060   -3.1520 N.3     1  ARG1       -0.1231
    154 CA         55.0100   62.8600   -1.9560 C.3     1  ARG1        0.1694
    155 C          54.3210   63.8320   -1.0210 C.2     1  ARG1        0.2593
    156 O          54.9550   64.7200   -0.4570 O.2     1  ARG1       -0.2718
    157 CB         56.4020   63.4040   -2.3170 C.3     1  ARG1        0.0321
    158 CG         57.3810   62.3470   -2.8050 C.3     1  ARG1        0.0489
    159 CD         58.6450   62.9680   -3.3610 C.3     1  ARG1        0.2205
    160 NE         59.5130   61.9600   -3.9670 N.pl3   1  ARG1       -0.0865
    161 CZ         60.8380   61.9470   -3.8500 C.cat   1  ARG1        0.5346
    162 NH2        61.4500   62.8900   -3.1500 N.pl3   1  ARG1        0.1354
    163 NH1        61.5520   60.9840   -4.4180 N.pl3   1  ARG1        0.1354
    164 N          53.0140   63.6610   -0.8730 N.am    2  THR2       -0.1939
    165 CA         52.2220   64.5310   -0.0210 C.3     2  THR2        0.2028
    166 C          51.8140   63.8200    1.2500 C.2     2  THR2        0.2642
    167 O          51.7220   62.6000    1.2890 O.2     2  THR2       -0.2714
    168 CB         50.9320   64.9790   -0.7310 C.3     2  THR2        0.1808
    169 OG1        50.3850   63.8760   -1.4580 O.3     2  THR2       -0.2208
    170 CG2        51.2160   66.1170   -1.6940 C.3     2  THR2        0.0379
    171 N          51.5890   64.5910    2.3020 N.am    3  PHE3       -0.1973
    172 CA         51.1280   64.0190    3.5490 C.3     3  PHE3        0.1639
    173 C          49.6410   64.2900    3.4140 C.2     3  PHE3        0.2290
    174 O          49.1250   65.3270    3.8420 O.2     3  PHE3       -0.2864
    175 CB         51.7480   64.7500    4.7340 C.3     3  PHE3        0.0560
    176 CG         53.2300   64.5450    4.8530 C.ar    3  PHE3       -0.0200
    177 CD1        53.7680   63.2670    4.8690 C.ar    3  PHE3       -0.0042
    178 CD2        54.0930   65.6260    4.9610 C.ar    3  PHE3       -0.0042
    179 CE1        55.1510   63.0640    4.9970 C.ar    3  PHE3       -0.0003
    180 CE2        55.4770   65.4330    5.0880 C.ar    3  PHE3       -0.0003
    181 CZ         56.0020   64.1440    5.1070 C.ar    3  PHE3       -0.0000
@<TRIPOS>UNITY_ATOM_ATTR
132 1
charge -1
@<TRIPOS>BOND
     1     1     2    1
     2     2     3    1
     3     2     5    1
     4     3     4    2
     5     3     8   am
     6     5     6    1
     7     5     7    1
     8     8     9    1
     9     9    12    1
    10     9    10    1
    11    10    11    2
    12    10    16   am
    13    12    13    1
    14    13    15   am
    15    13    14    2
    16    16    17    1
    17    17    18    1
    18    17    20    1
    19    18    28   am
    20    18    19    2
    21    20    21    1
    22    21    22   ar
    23    21    23   ar
    24    22    24   ar
    25    23    25   ar
    26    24    26   ar
    27    25    26   ar
    28    26    27    1
    29    28    29    1
    30    29    30    1
    31    30    31    2
    32    30    32   am
    33    32    33    1
    34    33    34    1
    35    33    36    1
    36    34    40   am
    37    34    35    2
    38    36    37    1
    39    37    38    1
    40    38    39    1
    41    40    41    1
    42    41    44    1
    43    41    42    1
    44    42    43    2
    45    44    45    1
    46    45    47   am
    47    45    46    2
    48    48    49    1
    49    49    52    1
    50    49    50    1
    51    50    51    2
    52    52    53    1
    53    53    55    2
    54    53    54    1
    55    54    56    1
    56    55    57   ar
    57    55    58   ar
    58    56    57    2
    59    57    59   ar
    60    58    60   ar
    61    59    61   ar
    62    60    61   ar
    63    62    63    1
    64    63    66    1
    65    63    64    1
    66    64    76   am
    67    64    65    2
    68    66    67    1
    69    67    69    2
    70    67    68    1
    71    68    70    1
    72    69    71   ar
    73    69    72   ar
    74    70    71    2
    75    71    73   ar
    76    72    74   ar
    77    73    75   ar
    78    74    75   ar
    79    76    77    1
    80    77    78    1
    81    77    80    1
    82    78    84   am
    83    78    79    2
    84    80    81    1
    85    80    82    1
    86    81    83    1
    87    84    85    1
    88    85    88    1
    89    85    86    1
    90    86    92   am
    91    86    87    2
    92    88    89    1
    93    89    90    2
    94    89    91   am
    95    92    93    1
    96    93    94    1
    97    93    96    1
    98    94    99   am
    99    94    95    2
   100    96    97    1
   101    96    98    1
   102    99   100    1
   103   100   103    1
   104   100   101    1
   105   101   102    2
   106   103   104    1
   107   104   106   ar
   108   104   105   ar
   109   105   107   ar
   110   106   108   ar
   111   107   109   ar
   112   108   109   ar
   113   109   110    1
   114   111   112    1
   115   112   113    1
   116   112   115    1
   117   113   120   am
   118   113   114    2
   119   115   116    1
   120   116   117    1
   121   117   118    2
   122   117   119   am
   123   120   121    1
   124   121   122    1
   125   121   124    1
   126   122   125   am
   127   122   123    2
   128   125   126    1
   129   126   129    1
   130   126   127    1
   131   127   134   am
   132   127   128    2
   133   129   130    1
   134   130   131    1
   135   131   133   ar
   136   131   132   ar
   137   134   135    1
   138   135   136    1
   139   135   138    1
   140   136   145   am
   141   136   137    2
   142   138   139    1
   143   139   140    1
   144   140   141    1
   145   141   142    2
   146   142   144    1
   147   142   143    1
   148   145   146    1
   149   146   149    1
   150   146   147    1
   151   147   148    2
   152   149   150    1
   153   150   152    1
   154   150   151    1
   155   153   154    1
   156   154   157    1
   157   154   155    1
   158   155   164   am
   159   155   156    2
   160   157   158    1
   161   158   159    1
   162   159   160    1
   163   160   161    2
   164   161   163    1
   165   161   162    1
   166   164   165    1
   167   165   168    1
   168   165   166    1
   169   166   167    2
   170   166   171   am
   171   168   170    1
   172   168   169    1
   173   171   172    1
   174   172   173    1
   175   172   175    1
   176   173   174    2
   177   175   176    1
   178   176   177   ar
   179   176   178   ar
   180   177   179   ar
   181   178   180   ar
   182   179   181   ar
   183   180   181   ar
