@<TRIPOS>MOLECULE
./1uam/protein.pdb
 236 237 0 0 0
SMALL
GASTEIGER

@<TRIPOS>ATOM
      1 N         -27.4980   76.2610 -141.1490 N.3     1  LEU1       -0.1245
      2 CA        -26.4560   75.2680 -140.9210 C.3     1  LEU1        0.1561
      3 C         -25.1320   76.0200 -140.9220 C.2     1  LEU1        0.2260
      4 O         -25.0530   77.1430 -141.4200 O.2     1  LEU1       -0.2867
      5 CB        -26.4160   74.2250 -142.0430 C.3     1  LEU1        0.0270
      6 CG        -27.3790   73.0430 -142.0730 C.3     1  LEU1        0.0019
      7 CD1       -26.8970   72.0520 -143.1430 C.3     1  LEU1        0.0001
      8 CD2       -27.4180   72.3490 -140.7050 C.3     1  LEU1        0.0001
      9 N         -17.1120   64.5560 -133.4730 N.3     1  TYR1       -0.1227
     10 CA        -18.1360   65.5670 -133.6460 C.3     1  TYR1        0.1736
     11 C         -19.0680   65.4830 -132.4310 C.2     1  TYR1        0.2595
     12 O         -19.5880   64.4100 -132.1070 O.2     1  TYR1       -0.2718
     13 CB        -18.9310   65.3350 -134.9390 C.3     1  TYR1        0.0548
     14 CG        -20.0940   66.2920 -135.1060 C.ar    1  TYR1       -0.0200
     15 CD1       -21.3600   65.8300 -135.4780 C.ar    1  TYR1       -0.0009
     16 CD2       -19.9380   67.6590 -134.8640 C.ar    1  TYR1       -0.0009
     17 CE1       -22.4420   66.7070 -135.5990 C.ar    1  TYR1        0.0417
     18 CE2       -21.0110   68.5400 -134.9830 C.ar    1  TYR1        0.0417
     19 CZ        -22.2580   68.0600 -135.3480 C.ar    1  TYR1        0.1957
     20 OH        -23.3200   68.9330 -135.4480 O.3     1  TYR1       -0.2866
     21 N         -19.2370   66.6060 -131.7350 N.am    2  LEU2       -0.1966
     22 CA        -20.1250   66.6570 -130.5730 C.3     2  LEU2        0.1728
     23 C         -21.5430   66.7380 -131.1140 C.2     2  LEU2        0.2617
     24 O         -21.8770   67.6620 -131.8730 O.2     2  LEU2       -0.2715
     25 CB        -19.8360   67.8910 -129.7020 C.3     2  LEU2        0.0311
     26 CG        -18.6160   67.8970 -128.7610 C.3     2  LEU2        0.0022
     27 CD2       -18.7020   66.7110 -127.8180 C.3     2  LEU2        0.0001
     28 CD1       -17.3080   67.8480 -129.5590 C.3     2  LEU2        0.0001
     29 N         -22.3740   65.7700 -130.7450 N.am    3  SER3       -0.1936
     30 CA        -23.7480   65.7440 -131.2320 C.3     3  SER3        0.2040
     31 C         -24.6820   64.9790 -130.3000 C.2     3  SER3        0.2485
     32 O         -24.3070   63.9560 -129.7320 O.2     3  SER3       -0.2729
     33 CB        -23.7890   65.1120 -132.6320 C.3     3  SER3        0.2129
     34 OG        -25.1210   64.8250 -133.0330 O.3     3  SER3       -0.2179
     35 N         -25.9220   65.4670 -130.1430 N.am    4  PRO4       -0.2715
     36 CA        -26.8810   64.7890 -129.2670 C.3     4  PRO4        0.1536
     37 C         -27.3350   63.4530 -129.8710 C.2     4  PRO4        0.2598
     38 O         -28.0790   62.6950 -129.2480 O.2     4  PRO4       -0.2715
     39 CB        -28.0120   65.8060 -129.1500 C.3     4  PRO4        0.0310
     40 CG        -27.9950   66.4770 -130.5150 C.3     4  PRO4        0.0237
     41 CD        -26.5180   66.6640 -130.7730 C.3     4  PRO4        0.0939
     42 N         -26.8770   63.1700 -131.0870 N.am    5  GLN5       -0.1978
     43 CA        -27.2300   61.9280 -131.7700 C.3     5  GLN5        0.1601
     44 C         -26.0720   60.9330 -131.7550 C.2     5  GLN5        0.2287
     45 O         -26.1590   59.8600 -132.3580 O.2     5  GLN5       -0.2864
     46 CB        -27.6210   62.2110 -133.2220 C.3     5  GLN5        0.0394
     47 CG        -28.8420   63.0880 -133.3950 C.3     5  GLN5        0.0908
     48 CD        -29.2820   63.1540 -134.8410 C.2     5  GLN5        0.2608
     49 OE1       -29.4830   62.1230 -135.4780 O.2     5  GLN5       -0.2717
     50 NE2       -29.4350   64.3650 -135.3680 N.am    5  GLN5       -0.0878
     51 N         -17.0990   71.4290 -132.8440 N.3     1  CYS1       -0.1221
     52 CA        -18.2640   71.9830 -132.1630 C.3     1  CYS1        0.1808
     53 C         -19.2320   72.6090 -133.1540 C.2     1  CYS1        0.2602
     54 O         -18.8600   73.4960 -133.9280 O.2     1  CYS1       -0.2717
     55 CB        -17.8400   73.0430 -131.1350 C.3     1  CYS1        0.0970
     56 SG        -16.6400   72.4830 -129.8930 S.3     1  CYS1       -0.0800
     57 N         -20.4780   72.1480 -133.1260 N.am    2  GLY2       -0.1942
     58 CA        -21.4750   72.6940 -134.0240 C.3     2  GLY2        0.2014
     59 C         -22.2480   73.8420 -133.3970 C.2     2  GLY2        0.2639
     60 O         -22.1700   74.0980 -132.1910 O.2     2  GLY2       -0.2714
     61 N         -22.9790   74.5580 -134.2380 N.am    3  ARG3       -0.1963
     62 CA        -23.8030   75.6790 -133.8020 C.3     3  ARG3        0.1729
     63 C         -25.0330   75.6530 -134.6860 C.2     3  ARG3        0.2616
     64 O         -25.0770   74.8960 -135.6520 O.2     3  ARG3       -0.2715
     65 CB        -23.0470   77.0090 -133.9600 C.3     3  ARG3        0.0348
     66 CG        -22.1240   77.3320 -132.7680 C.3     3  ARG3        0.0492
     67 CD        -22.9630   77.7740 -131.5740 C.3     3  ARG3        0.2205
     68 NE        -22.2680   77.6480 -130.3040 N.pl3   3  ARG3       -0.0865
     69 CZ        -22.5880   78.3280 -129.2080 C.cat   3  ARG3        0.5346
     70 NH1       -23.5910   79.1920 -129.2310 N.pl3   3  ARG3        0.1354
     71 NH2       -21.9130   78.1350 -128.0800 N.pl3   3  ARG3        0.1354
     72 N         -26.0360   76.4500 -134.3480 N.am    4  TYR4       -0.1960
     73 CA        -27.2470   76.4900 -135.1500 C.3     4  TYR4        0.1771
     74 C         -27.8630   75.0920 -135.2060 C.2     4  TYR4        0.2619
     75 O         -27.8750   74.3720 -134.2080 O.2     4  TYR4       -0.2715
     76 CB        -26.9100   76.9790 -136.5660 C.3     4  TYR4        0.0574
     77 CG        -25.9070   78.1100 -136.5810 C.ar    4  TYR4       -0.0198
     78 CD1       -24.8380   78.1040 -137.4770 C.ar    4  TYR4       -0.0009
     79 CD2       -26.0100   79.1760 -135.6860 C.ar    4  TYR4       -0.0009
     80 CE1       -23.8960   79.1230 -137.4860 C.ar    4  TYR4        0.0417
     81 CE2       -25.0650   80.2060 -135.6860 C.ar    4  TYR4        0.0417
     82 CZ        -24.0120   80.1660 -136.5940 C.ar    4  TYR4        0.1957
     83 OH        -23.0720   81.1670 -136.6060 O.3     4  TYR4       -0.2866
     84 N         -28.3550   74.7040 -136.3810 N.am    5  GLU5       -0.1963
     85 CA        -28.9900   73.4030 -136.5530 C.3     5  GLU5        0.1731
     86 C         -27.9930   72.2650 -136.6340 C.2     5  GLU5        0.2617
     87 O         -28.3680   71.1000 -136.5150 O.2     5  GLU5       -0.2715
     88 CB        -29.8540   73.3940 -137.8160 C.3     5  GLU5        0.0370
     89 CG        -31.2880   72.9900 -137.5620 C.3     5  GLU5        0.0440
     90 CD        -31.9800   73.9420 -136.6050 C.2     5  GLU5        0.0504
     91 OE1       -32.0170   75.1550 -136.9150 O.co2   5  GLU5       -0.5492
     92 OE2       -32.4770   73.4850 -135.5520 O.co2   5  GLU5       -0.5492
     93 N         -26.7270   72.6020 -136.8470 N.am    6  GLY6       -0.1940
     94 CA        -25.7010   71.5810 -136.9440 C.3     6  GLY6        0.2014
     95 C         -24.8350   71.7400 -138.1810 C.2     6  GLY6        0.2639
     96 O         -24.6110   72.8580 -138.6670 O.2     6  GLY6       -0.2714
     97 N         -24.3570   70.6130 -138.7060 N.am    7  ILE7       -0.1963
     98 CA        -23.5010   70.6400 -139.8750 C.3     7  ILE7        0.1727
     99 C         -23.9770   69.6720 -140.9640 C.2     7  ILE7        0.2616
    100 O         -24.7280   68.7360 -140.6910 O.2     7  ILE7       -0.2715
    101 CB        -22.0380   70.3190 -139.4780 C.3     7  ILE7        0.0290
    102 CG1       -21.8770   68.8330 -139.1780 C.3     7  ILE7        0.0022
    103 CG2       -21.6560   71.1040 -138.2100 C.3     7  ILE7        0.0023
    104 CD1       -20.4510   68.4490 -138.8000 C.3     7  ILE7        0.0001
    105 N         -23.5460   69.9210 -142.1990 N.am    8  ASP8       -0.1959
    106 CA        -23.9160   69.0900 -143.3490 C.3     8  ASP8        0.1783
    107 C         -23.5840   67.6140 -143.0580 C.2     8  ASP8        0.2619
    108 O         -22.4860   67.2840 -142.5970 O.2     8  ASP8       -0.2715
    109 CB        -23.1660   69.5890 -144.5960 C.3     8  ASP8        0.0728
    110 CG        -23.6250   68.9140 -145.8760 C.2     8  ASP8        0.0526
    111 OD1       -24.3050   69.5750 -146.6910 O.co2   8  ASP8       -0.5491
    112 OD2       -23.3070   67.7230 -146.0730 O.co2   8  ASP8       -0.5491
    113 N         -24.5380   66.7280 -143.3280 N.am    9  GLU9       -0.1977
    114 CA        -24.3450   65.3030 -143.0590 C.3     9  GLU9        0.1600
    115 C         -23.1700   64.6780 -143.8340 C.2     9  GLU9        0.2287
    116 O         -22.5710   63.7070 -143.3780 O.2     9  GLU9       -0.2864
    117 CB        -25.6480   64.5430 -143.3430 C.3     9  GLU9        0.0356
    118 CG        -25.6800   63.1200 -142.7970 C.3     9  GLU9        0.0439
    119 CD        -25.7550   63.0690 -141.2740 C.2     9  GLU9        0.0504
    120 OE1       -25.6050   61.9660 -140.7080 O.co2   9  GLU9       -0.5492
    121 OE2       -25.9710   64.1220 -140.6430 O.co2   9  GLU9       -0.5492
    122 N         -19.9310   65.0750 -141.9360 N.3     1  ILE1       -0.1245
    123 CA        -19.8370   64.0770 -140.8840 C.3     1  ILE1        0.1561
    124 C         -19.3290   62.7520 -141.4380 C.2     1  ILE1        0.2260
    125 O         -18.4940   62.0860 -140.8200 O.2     1  ILE1       -0.2867
    126 CB        -21.2150   63.8440 -140.2070 C.3     1  ILE1        0.0252
    127 CG1       -21.6900   65.1440 -139.5430 C.3     1  ILE1        0.0019
    128 CG2       -21.1130   62.7340 -139.1680 C.3     1  ILE1        0.0019
    129 CD1       -22.9610   65.0040 -138.7200 C.3     1  ILE1        0.0001
    130 N         -19.1430   60.1370 -133.3470 N.3     1  GLU1       -0.1231
    131 CA        -20.0480   61.1610 -132.8560 C.3     1  GLU1        0.1697
    132 C         -20.3050   60.8720 -131.3760 C.2     1  GLU1        0.2592
    133 O         -20.5390   59.7160 -130.9910 O.2     1  GLU1       -0.2718
    134 CB        -21.3720   61.1260 -133.6210 C.3     1  GLU1        0.0343
    135 CG        -21.2750   61.5570 -135.0680 C.3     1  GLU1        0.0437
    136 CD        -22.5850   61.3860 -135.8000 C.2     1  GLU1        0.0504
    137 OE2       -23.5910   61.9550 -135.3450 O.co2   1  GLU1       -0.5492
    138 OE1       -22.6170   60.6790 -136.8270 O.co2   1  GLU1       -0.5492
    139 N         -20.2640   61.9130 -130.5510 N.am    2  TRP2       -0.1962
    140 CA        -20.5000   61.7470 -129.1200 C.3     2  TRP2        0.1768
    141 C         -21.4720   62.7660 -128.5550 C.2     2  TRP2        0.2620
    142 O         -21.4570   63.9350 -128.9330 O.2     2  TRP2       -0.2715
    143 CB        -19.1920   61.8500 -128.3250 C.3     2  TRP2        0.0553
    144 CG        -18.2420   60.7130 -128.5120 C.2     2  TRP2       -0.0136
    145 CD1       -17.3990   60.5070 -129.5700 C.2     2  TRP2        0.0907
    146 CD2       -18.0250   59.6260 -127.6060 C.3     2  TRP2        0.0819
    147 NE1       -16.6670   59.3590 -129.3730 N.2     2  TRP2       -0.2482
    148 CE2       -17.0320   58.7990 -128.1770 C.2     2  TRP2        0.0665
    149 CE3       -18.5750   59.2700 -126.3660 C.2     2  TRP2       -0.0164
    150 CZ2       -16.5760   57.6350 -127.5490 C.2     2  TRP2        0.0153
    151 CZ3       -18.1250   58.1150 -125.7420 C.2     2  TRP2       -0.0038
    152 CH2       -17.1340   57.3100 -126.3350 C.2     2  TRP2        0.0009
    153 N         -22.3090   62.3040 -127.6340 N.am    3  SER3       -0.1936
    154 CA        -23.2870   63.1460 -126.9630 C.3     3  SER3        0.2055
    155 C         -22.9980   63.1230 -125.4650 C.2     3  SER3        0.2643
    156 O         -22.5110   62.1230 -124.9450 O.2     3  SER3       -0.2714
    157 CB        -24.6930   62.6130 -127.2140 C.3     3  SER3        0.2130
    158 OG        -25.6470   63.2840 -126.4170 O.3     3  SER3       -0.2179
    159 N         -23.2760   64.2160 -124.7680 N.am    4  ILE4       -0.1963
    160 CA        -23.0570   64.2270 -123.3250 C.3     4  ILE4        0.1727
    161 C         -24.3540   63.9050 -122.6080 C.2     4  ILE4        0.2617
    162 O         -24.3800   63.8370 -121.3920 O.2     4  ILE4       -0.2715
    163 CB        -22.5410   65.5880 -122.7920 C.3     4  ILE4        0.0290
    164 CG1       -23.4280   66.7290 -123.2940 C.3     4  ILE4        0.0022
    165 CG2       -21.0810   65.7850 -123.1850 C.3     4  ILE4        0.0023
    166 CD1       -23.2930   68.0040 -122.4550 C.3     4  ILE4        0.0001
    167 N         -25.4290   63.6990 -123.3650 N.am    5  GLY5       -0.1940
    168 CA        -26.7110   63.3850 -122.7490 C.3     5  GLY5        0.2014
    169 C         -27.8910   63.6220 -123.6710 C.2     5  GLY5        0.2639
    170 O         -27.7530   64.2930 -124.6990 O.2     5  GLY5       -0.2714
    171 N         -29.0540   63.0870 -123.3060 N.am    6  ASP6       -0.1959
    172 CA        -30.2540   63.2330 -124.1340 C.3     6  ASP6        0.1783
    173 C         -30.9860   64.5530 -123.9200 C.2     6  ASP6        0.2620
    174 O         -32.0980   64.6030 -123.3920 O.2     6  ASP6       -0.2715
    175 CB        -31.2150   62.0630 -123.8990 C.3     6  ASP6        0.0728
    176 CG        -30.6190   60.7250 -124.3160 C.2     6  ASP6        0.0526
    177 OD1       -29.8380   60.6990 -125.2900 O.co2   6  ASP6       -0.5491
    178 OD2       -30.9410   59.7000 -123.6800 O.co2   6  ASP6       -0.5491
    179 N         -30.3450   65.6240 -124.3500 N.am    7  TYR7       -0.1960
    180 CA        -30.8940   66.9590 -124.2300 C.3     7  TYR7        0.1771
    181 C         -30.1550   67.7960 -125.2580 C.2     7  TYR7        0.2619
    182 O         -29.0680   67.4190 -125.6980 O.2     7  TYR7       -0.2715
    183 CB        -30.6980   67.4960 -122.7980 C.3     7  TYR7        0.0574
    184 CG        -29.3500   67.1800 -122.1800 C.ar    7  TYR7       -0.0198
    185 CD1       -28.2380   67.9600 -122.4650 C.ar    7  TYR7       -0.0009
    186 CD2       -29.1940   66.1010 -121.2970 C.ar    7  TYR7       -0.0009
    187 CE1       -26.9980   67.6930 -121.8910 C.ar    7  TYR7        0.0417
    188 CE2       -27.9420   65.8210 -120.7080 C.ar    7  TYR7        0.0417
    189 CZ        -26.8510   66.6280 -121.0130 C.ar    7  TYR7        0.1957
    190 OH        -25.6150   66.4030 -120.4490 O.3     7  TYR7       -0.2866
    191 N         -30.7440   68.9190 -125.6510 N.am    8  VAL8       -0.1963
    192 CA        -30.1370   69.7750 -126.6650 C.3     8  VAL8        0.1727
    193 C         -29.6180   71.1040 -126.1530 C.2     8  VAL8        0.2616
    194 O         -30.3370   71.8410 -125.4760 O.2     8  VAL8       -0.2715
    195 CB        -31.1360   70.0570 -127.7940 C.3     8  VAL8        0.0290
    196 CG1       -30.4900   70.9470 -128.8610 C.3     8  VAL8        0.0023
    197 CG2       -31.6140   68.7370 -128.3870 C.3     8  VAL8        0.0023
    198 N         -28.3680   71.3990 -126.4990 N.am    9  LEU9       -0.1963
    199 CA        -27.7060   72.6430 -126.1130 C.3     9  LEU9        0.1728
    200 C         -27.5440   73.5320 -127.3550 C.2     9  LEU9        0.2617
    201 O         -27.7760   73.0900 -128.4830 O.2     9  LEU9       -0.2715
    202 CB        -26.3290   72.3480 -125.4990 C.3     9  LEU9        0.0311
    203 CG        -26.3100   71.4060 -124.2830 C.3     9  LEU9        0.0022
    204 CD1       -24.8940   71.2890 -123.7260 C.3     9  LEU9        0.0001
    205 CD2       -27.2520   71.9350 -123.2040 C.3     9  LEU9        0.0001
    206 N         -27.1320   74.7780 -127.1360 N.am   10  THR10      -0.1937
    207 CA        -26.9600   75.7510 -128.2140 C.3    10  THR10       0.2028
    208 C         -25.7250   75.5240 -129.0830 C.2    10  THR10       0.2643
    209 O         -25.6560   76.0220 -130.2010 O.2    10  THR10      -0.2714
    210 CB        -26.9050   77.1930 -127.6400 C.3    10  THR10       0.1808
    211 OG1       -25.7160   77.3610 -126.8560 O.3    10  THR10      -0.2208
    212 CG2       -28.1140   77.4550 -126.7470 C.3    10  THR10       0.0379
    213 N         -24.7560   74.7720 -128.5740 N.am   11  GLY11      -0.1939
    214 CA        -23.5470   74.5140 -129.3330 C.3    11  GLY11       0.2014
    215 C         -22.7580   73.3450 -128.7760 C.2    11  GLY11       0.2639
    216 O         -23.1090   72.7980 -127.7230 O.2    11  GLY11      -0.2714
    217 N         -21.6890   72.9640 -129.4760 N.am   12  GLY12      -0.1939
    218 CA        -20.8680   71.8470 -129.0330 C.3    12  GLY12       0.2014
    219 C         -19.7680   72.2150 -128.0490 C.2    12  GLY12       0.2638
    220 O         -19.0690   71.3450 -127.5360 O.2    12  GLY12      -0.2714
    221 N         -19.6240   73.5060 -127.7740 N.am   13  GLU13      -0.1977
    222 CA        -18.5930   73.9900 -126.8610 C.3    13  GLU13       0.1600
    223 C         -18.6730   73.4080 -125.4400 C.2    13  GLU13       0.2287
    224 O         -17.6950   72.8380 -124.9370 O.2    13  GLU13      -0.2864
    225 CB        -18.6350   75.5200 -126.8040 C.3    13  GLU13       0.0356
    226 CG        -18.0830   76.2420 -128.0500 C.3    13  GLU13       0.0439
    227 CD        -19.0120   76.2350 -129.2450 C.2    13  GLU13       0.0504
    228 OE2       -20.2290   76.0510 -129.0620 O.co2  13  GLU13      -0.5492
    229 OE1       -18.5250   76.4490 -130.3790 O.co2  13  GLU13      -0.5492
    230 N         -20.3550   70.7720 -124.4000 N.3     1  PRO1       -0.2116
    231 CA        -20.1580   69.3170 -124.4700 C.3     1  PRO1        0.1372
    232 C         -18.6850   68.9650 -124.6950 C.2     1  PRO1        0.2244
    233 O         -18.1730   67.9910 -124.1440 O.2     1  PRO1       -0.2868
    234 CB        -21.0280   68.9020 -125.6570 C.3     1  PRO1        0.0268
    235 CG        -22.1320   69.9390 -125.6560 C.3     1  PRO1        0.0207
    236 CD        -21.3680   71.2160 -125.3780 C.3     1  PRO1        0.0892
@<TRIPOS>UNITY_ATOM_ATTR
91 1
charge -1
111 1
charge -1
120 1
charge -1
137 1
charge -1
177 1
charge -1
228 1
charge -1
@<TRIPOS>BOND
     1     1     2    1
     2     2     5    1
     3     2     3    1
     4     3     4    2
     5     5     6    1
     6     6     7    1
     7     6     8    1
     8     9    10    1
     9    10    13    1
    10    10    11    1
    11    11    12    2
    12    11    21   am
    13    13    14    1
    14    14    15   ar
    15    14    16   ar
    16    15    17   ar
    17    16    18   ar
    18    17    19   ar
    19    18    19   ar
    20    19    20    1
    21    21    22    1
    22    22    23    1
    23    22    25    1
    24    23    24    2
    25    23    29   am
    26    25    26    1
    27    26    28    1
    28    26    27    1
    29    29    30    1
    30    30    33    1
    31    30    31    1
    32    31    35   am
    33    31    32    2
    34    33    34    1
    35    35    41    1
    36    35    36    1
    37    36    37    1
    38    36    39    1
    39    37    42   am
    40    37    38    2
    41    39    40    1
    42    40    41    1
    43    42    43    1
    44    43    46    1
    45    43    44    1
    46    44    45    2
    47    46    47    1
    48    47    48    1
    49    48    49    2
    50    48    50   am
    51    51    52    1
    52    52    53    1
    53    52    55    1
    54    53    54    2
    55    53    57   am
    56    55    56    1
    57    57    58    1
    58    58    59    1
    59    59    61   am
    60    59    60    2
    61    61    62    1
    62    62    63    1
    63    62    65    1
    64    63    64    2
    65    63    72   am
    66    65    66    1
    67    66    67    1
    68    67    68    1
    69    68    69    2
    70    69    70    1
    71    69    71    1
    72    72    73    1
    73    73    76    1
    74    73    74    1
    75    74    84   am
    76    74    75    2
    77    76    77    1
    78    77    78   ar
    79    77    79   ar
    80    78    80   ar
    81    79    81   ar
    82    80    82   ar
    83    81    82   ar
    84    82    83    1
    85    84    85    1
    86    85    88    1
    87    85    86    1
    88    86    93   am
    89    86    87    2
    90    88    89    1
    91    89    90    1
    92    90    91   ar
    93    90    92   ar
    94    93    94    1
    95    94    95    1
    96    95    97   am
    97    95    96    2
    98    97    98    1
    99    98    99    1
   100    98   101    1
   101    99   105   am
   102    99   100    2
   103   101   102    1
   104   101   103    1
   105   102   104    1
   106   105   106    1
   107   106   109    1
   108   106   107    1
   109   107   113   am
   110   107   108    2
   111   109   110    1
   112   110   111   ar
   113   110   112   ar
   114   113   114    1
   115   114   115    1
   116   114   117    1
   117   115   116    2
   118   117   118    1
   119   118   119    1
   120   119   120   ar
   121   119   121   ar
   122   122   123    1
   123   123   124    1
   124   123   126    1
   125   124   125    2
   126   126   127    1
   127   126   128    1
   128   127   129    1
   129   130   131    1
   130   131   134    1
   131   131   132    1
   132   132   133    2
   133   132   139   am
   134   134   135    1
   135   135   136    1
   136   136   138   ar
   137   136   137   ar
   138   139   140    1
   139   140   141    1
   140   140   143    1
   141   141   142    2
   142   141   153   am
   143   143   144    1
   144   144   145    2
   145   144   146    1
   146   145   147    1
   147   146   148    1
   148   146   149    1
   149   147   148    2
   150   148   150    1
   151   149   151    2
   152   150   152    2
   153   151   152    1
   154   153   154    1
   155   154   157    1
   156   154   155    1
   157   155   156    2
   158   155   159   am
   159   157   158    1
   160   159   160    1
   161   160   163    1
   162   160   161    1
   163   161   167   am
   164   161   162    2
   165   163   164    1
   166   163   165    1
   167   164   166    1
   168   167   168    1
   169   168   169    1
   170   169   170    2
   171   169   171   am
   172   171   172    1
   173   172   173    1
   174   172   175    1
   175   173   179   am
   176   173   174    2
   177   175   176    1
   178   176   177   ar
   179   176   178   ar
   180   179   180    1
   181   180   181    1
   182   180   183    1
   183   181   182    2
   184   181   191   am
   185   183   184    1
   186   184   185   ar
   187   184   186   ar
   188   185   187   ar
   189   186   188   ar
   190   187   189   ar
   191   188   189   ar
   192   189   190    1
   193   191   192    1
   194   192   195    1
   195   192   193    1
   196   193   198   am
   197   193   194    2
   198   195   196    1
   199   195   197    1
   200   198   199    1
   201   199   200    1
   202   199   202    1
   203   200   201    2
   204   200   206   am
   205   202   203    1
   206   203   204    1
   207   203   205    1
   208   206   207    1
   209   207   208    1
   210   207   210    1
   211   208   209    2
   212   208   213   am
   213   210   211    1
   214   210   212    1
   215   213   214    1
   216   214   215    1
   217   215   217   am
   218   215   216    2
   219   217   218    1
   220   218   219    1
   221   219   221   am
   222   219   220    2
   223   221   222    1
   224   222   225    1
   225   222   223    1
   226   223   224    2
   227   225   226    1
   228   226   227    1
   229   227   229   ar
   230   227   228   ar
   231   230   236    1
   232   230   231    1
   233   231   234    1
   234   231   232    1
   235   232   233    2
   236   234   235    1
   237   235   236    1
