@<TRIPOS>MOLECULE
./1hel/ligand.pdb
 43 45 0 0 0
SMALL
GASTEIGER

@<TRIPOS>ATOM
      1  C1         5.9910   25.2370   25.9800 C.3     1  NAG1        0.2917
      2  O1         6.6920   24.4910   24.9910 O.3     1  NAG1       -0.1879
      3  C2         4.8500   24.3020   26.4550 C.3     1  NAG1        0.1870
      4  N2         4.0070   23.9390   25.2990 N.am    1  NAG1       -0.1991
      5  C3         4.0460   24.9910   27.5380 C.3     1  NAG1        0.2063
      6  O3         3.1500   24.0980   28.2160 O.3     1  NAG1       -0.2184
      7  C4         5.0380   25.5480   28.6180 C.3     1  NAG1        0.1795
      8  O4         4.1960   26.5710   29.4630 O.3     1  NAG1       -0.3264
      9  C5         6.3140   26.2330   28.1080 C.3     1  NAG1        0.1803
     10  O5         6.9360   25.3350   27.1160 O.3     1  NAG1       -0.3243
     11  C6         7.3400   26.4660   29.1900 C.3     1  NAG1        0.2141
     12  O6         7.9440   25.1940   29.7180 O.3     1  NAG1       -0.2176
     13  C7         3.6350   22.6680   25.0080 C.2     1  NAG1        0.2420
     14  O7         3.9990   21.7860   25.6410 O.2     1  NAG1       -0.2733
     15  C8         2.7370   22.5630   23.8280 C.3     1  NAG1        0.0964
     16  C1         3.8850   26.4270   30.8990 C.3     2  NAG2        0.2586
     17  C2         3.8030   27.9230   31.5740 C.3     2  NAG2        0.1841
     18  N2         5.0550   28.6710   31.4200 N.am    2  NAG2       -0.1992
     19  C3         3.5010   27.7600   33.0970 C.3     2  NAG2        0.2062
     20  O3         3.2810   29.0630   33.6640 O.3     2  NAG2       -0.2184
     21  C4         2.2210   26.8480   33.1260 C.3     2  NAG2        0.1795
     22  O4         1.7170   26.5730   34.4670 O.3     2  NAG2       -0.3264
     23  C5         2.4790   25.4100   32.4590 C.3     2  NAG2        0.1803
     24  O5         2.6070   25.6930   31.0100 O.3     2  NAG2       -0.3263
     25  C6         1.2890   24.5180   32.6810 C.3     2  NAG2        0.2141
     26  O6         0.1470   25.1140   31.8900 O.3     2  NAG2       -0.2176
     27  C7         5.1200   29.9960   31.1360 C.2     2  NAG2        0.2420
     28  O7         4.1770   30.6160   30.9140 O.2     2  NAG2       -0.2733
     29  C8         6.5000   30.5660   31.1430 C.3     2  NAG2        0.0964
     30  C1         0.5500   26.9010   35.2700 C.3     3  NAG3        0.2586
     31  C2         0.5900   26.5200   36.7470 C.3     3  NAG3        0.1842
     32  N2         0.9710   25.0330   36.7470 N.am    3  NAG3       -0.1992
     33  C3        -0.7560   26.7370   37.3620 C.3     3  NAG3        0.2094
     34  O3        -0.6030   26.7370   38.7950 O.3     3  NAG3       -0.2183
     35  C4        -1.3660   28.1090   36.9460 C.3     3  NAG3        0.2136
     36  O4        -2.8070   28.0960   37.2220 O.3     3  NAG3       -0.2176
     37  C5        -1.2100   28.4610   35.4520 C.3     3  NAG3        0.1834
     38  O5         0.1460   28.2660   35.0430 O.3     3  NAG3       -0.3262
     39  C6        -1.5120   29.9310   35.1930 C.3     3  NAG3        0.2142
     40  O6        -0.6950   30.4860   34.1180 O.3     3  NAG3       -0.2176
     41  C7         2.0740   24.5580   37.3560 C.2     3  NAG3        0.2420
     42  O7         2.9470   25.2480   37.6530 O.2     3  NAG3       -0.2733
     43  C8         2.0500   23.0920   37.6200 C.3     3  NAG3        0.0964
@<TRIPOS>BOND
     1     1     2    1
     2     1     3    1
     3     1    10    1
     4     3     4    1
     5     3     5    1
     6     4    13   am
     7     5     6    1
     8     5     7    1
     9     7     8    1
    10     7     9    1
    11     8    16    1
    12     9    10    1
    13     9    11    1
    14    11    12    1
    15    13    14    2
    16    13    15    1
    17    16    17    1
    18    16    24    1
    19    17    18    1
    20    17    19    1
    21    18    27   am
    22    19    20    1
    23    19    21    1
    24    21    22    1
    25    21    23    1
    26    22    30    1
    27    23    24    1
    28    23    25    1
    29    25    26    1
    30    27    28    2
    31    27    29    1
    32    30    31    1
    33    30    38    1
    34    31    32    1
    35    31    33    1
    36    32    41   am
    37    33    34    1
    38    33    35    1
    39    35    36    1
    40    35    37    1
    41    37    38    1
    42    37    39    1
    43    39    40    1
    44    41    42    2
    45    41    43    1
