@<TRIPOS>MOLECULE
./2fsg/protein.pdb
 209 201 0 0 0
SMALL
GASTEIGER

@<TRIPOS>ATOM
      1 N          45.8810   16.3220   57.8310 N.3     1  UNK1        0.0000
      2 C          45.4470   17.2820   56.8390 C.3     1  UNK1        0.0000
      3 C          44.7590   16.5970   55.6950 C.2     1  UNK1        0.0000
      4 O          45.2840   15.6470   55.1440 O.2     1  UNK1        0.0000
      5 C          46.6450   18.0180   56.3030 C.3     1  UNK1        0.0000
      6 C          47.1110   19.0020   57.2840 C.3     1  UNK1        0.0000
      7 SE         48.9890   19.6050   56.9590 Se      1  UNK1        0.0000
      8 C          49.8600   17.8870   57.0870 C.3     1  UNK1        0.0000
      9 N          43.5820   17.0850   55.3340 N.am    2  ARG2        0.0000
     10 CA         42.8670   16.5510   54.2160 C.3     2  ARG2        0.0000
     11 C          43.6670   16.6390   52.9040 C.2     2  ARG2        0.0000
     12 O          44.5770   17.4710   52.7240 O.2     2  ARG2        0.0000
     13 CB         41.5030   17.1870   54.0850 C.3     2  ARG2        0.0000
     14 CG         40.5410   16.1790   53.4710 C.3     2  ARG2        0.0000
     15 CD         39.0770   16.6040   53.4860 C.3     2  ARG2        0.0000
     16 NE         38.2040   16.0100   52.4060 N.pl3   2  ARG2        0.3300
     17 CZ         38.3550   16.2710   51.1070 C.cat   2  ARG2        0.0000
     18 NH1        37.5370   15.7490   50.2100 N.pl3   2  ARG2        0.3300
     19 NH2        39.3730   17.0760   50.7210 N.pl3   2  ARG2        0.3300
     20 N          43.3860   15.6900   52.0150 N.am    3  THR3        0.0000
     21 CA         43.9270   15.6830   50.6460 C.3     3  THR3        0.0000
     22 C          43.6780   17.0200   49.9600 C.2     3  THR3        0.0000
     23 O          42.5830   17.6440   50.0100 O.2     3  THR3        0.0000
     24 CB         43.3320   14.5100   49.7560 C.3     3  THR3        0.0000
     25 OG1        43.6780   13.3250   50.4140 O.3     3  THR3        0.0000
     26 CG2        43.9860   14.4020   48.3770 C.3     3  THR3        0.0000
     27 N          44.7900   17.4720   49.3830 N.am    4  GLY4        0.0000
     28 CA         44.7930   18.6670   48.5690 C.3     4  GLY4        0.0000
     29 C          45.2260   19.8350   49.3790 C.2     4  GLY4        0.0000
     30 O          45.2860   20.8720   48.8360 O.2     4  GLY4        0.0000
     31 N          45.5120   19.6610   50.6700 N.am    5  GLU5        0.0000
     32 CA         45.7600   20.8050   51.5670 C.3     5  GLU5        0.0000
     33 C          47.1780   21.2940   51.5510 C.2     5  GLU5        0.0000
     34 O          47.4870   22.2860   52.2400 O.2     5  GLU5        0.0000
     35 CB         45.3270   20.4790   53.0420 C.3     5  GLU5        0.0000
     36 CG         43.7870   20.4000   53.2410 C.3     5  GLU5        0.0000
     37 CD         43.0330   21.7130   52.9530 C.2     5  GLU5        0.0000
     38 OE2        43.3800   22.7100   53.5930 O.co2   5  GLU5       -0.5000
     39 OE1        42.0880   21.7390   52.1050 O.co2   5  GLU5       -0.5000
     40 N          50.3300   19.3200   52.0310 N.3     1  LYS1        0.0000
     41 CA         51.2120   18.6990   52.9980 C.3     1  LYS1        0.0000
     42 C          52.6290   18.8970   52.7100 C.2     1  LYS1        0.0000
     43 O          53.4550   19.0340   53.6140 O.2     1  LYS1        0.0000
     44 CB         50.9940   17.2390   52.9420 C.3     1  LYS1        0.0000
     45 CG         49.7590   16.7800   53.6700 C.3     1  LYS1        0.0000
     46 CD         49.8230   15.1870   53.6650 C.3     1  LYS1        0.0000
     47 CE         48.4110   14.6130   53.9150 C.3     1  LYS1        0.0000
     48 NZ         47.4790   14.9780   52.7970 N.3     1  LYS1        0.0000
     49 N          53.9060    9.7830   55.1840 N.3     1  GLU1        0.0000
     50 CA         52.6390    9.1030   55.0470 C.3     1  GLU1        0.0000
     51 C          52.7190    8.1230   56.1800 C.2     1  GLU1        0.0000
     52 O          53.2120    6.9900   56.0220 O.2     1  GLU1        0.0000
     53 CB         52.5350    8.3440   53.7220 C.3     1  GLU1        0.0000
     54 CG         51.7440    8.8910   52.6290 C.3     1  GLU1        0.0000
     55 CD         51.6390    7.9070   51.3590 C.2     1  GLU1        0.0000
     56 OE1        51.7240    8.4190   50.1890 O.co2   1  GLU1       -0.5000
     57 OE2        51.4340    6.6370   51.5280 O.co2   1  GLU1       -0.5000
     58 N          52.2610    8.5620   57.3320 N.am    2  VAL2        0.0000
     59 CA         52.4610    7.7520   58.5110 C.3     2  VAL2        0.0000
     60 C          51.6230    6.4660   58.5740 C.2     2  VAL2        0.0000
     61 O          52.0130    5.5390   59.2670 O.2     2  VAL2        0.0000
     62 CB         52.3030    8.5700   59.7660 C.3     2  VAL2        0.0000
     63 CG2        53.4420    9.5300   59.8200 C.3     2  VAL2        0.0000
     64 CG1        50.9810    9.1510   59.7820 C.3     2  VAL2        0.0000
     65 N          50.5480    6.3800   57.8140 N.am    3  ASP3        0.0000
     66 CA         49.7510    5.1650   57.8380 C.3     3  ASP3        0.0000
     67 C          50.5540    4.0610   57.2520 C.2     3  ASP3        0.0000
     68 O          50.5990    2.9930   57.8030 O.2     3  ASP3        0.0000
     69 CB         48.4420    5.2660   57.0670 C.3     3  ASP3        0.0000
     70 CG         47.3770    6.2260   57.7480 C.2     3  ASP3        0.0000
     71 OD2        47.5690    6.7240   58.9090 O.co2   3  ASP3       -0.5000
     72 OD1        46.3180    6.4560   57.0750 O.co2   3  ASP3       -0.5000
     73 N          51.2180    4.2930   56.1410 N.am    4  SER4        0.0000
     74 CA         51.9190    3.1880   55.5650 C.3     4  SER4        0.0000
     75 C          53.2250    3.0300   56.4200 C.2     4  SER4        0.0000
     76 O          53.5010    1.9780   56.9650 O.2     4  SER4        0.0000
     77 CB         52.0990    3.3060   54.0110 C.3     4  SER4        0.0000
     78 OG         52.9220    4.4370   53.6180 O.3     4  SER4        0.0000
     79 N          52.6740   13.1440   58.9940 N.3     1  UNK1        0.0000
     80 C          51.5090   13.5720   58.3160 C.3     1  UNK1        0.0000
     81 C          50.6650   12.4280   57.7270 C.2     1  UNK1        0.0000
     82 O          51.1610   11.3760   57.2610 O.2     1  UNK1        0.0000
     83 C          51.9130   14.5300   57.1990 C.3     1  UNK1        0.0000
     84 C          52.3850   15.7960   57.6450 C.3     1  UNK1        0.0000
     85 SE         52.9580   17.0610   56.1280 Se      1  UNK1        0.0000
     86 C          54.2150   15.7720   55.4210 C.3     1  UNK1        0.0000
     87 N          49.3700   12.6640   57.7360 N.am    2  THR2        0.0000
     88 CA         48.4060   11.7770   57.0500 C.3     2  THR2        0.0000
     89 C          47.1560   12.5000   56.6710 C.2     2  THR2        0.0000
     90 O          46.9600   13.6750   57.0610 O.2     2  THR2        0.0000
     91 CB         48.0660   10.5120   57.9750 C.3     2  THR2        0.0000
     92 OG1        47.4140    9.4810   57.1910 O.3     2  THR2        0.0000
     93 CG2        47.3150   10.8780   59.2000 C.3     2  THR2        0.0000
     94 N          46.2960   11.7640   55.9670 N.am    3  GLY3        0.0000
     95 CA         44.9290   12.2270   55.6380 C.3     3  GLY3        0.0000
     96 C          44.0270   12.2040   56.8520 C.2     3  GLY3        0.0000
     97 O          44.2760   11.4480   57.7850 O.2     3  GLY3        0.0000
     98 N          43.0250   13.0970   56.8610 N.am    4  THR4        0.0000
     99 CA         41.9670   13.1320   57.9190 C.3     4  THR4        0.0000
    100 C          40.9580   11.9300   57.7630 C.2     4  THR4        0.0000
    101 O          40.0430   11.7890   58.6100 O.2     4  THR4        0.0000
    102 CB         41.1770   14.5160   58.0520 C.3     4  THR4        0.0000
    103 OG1        40.4500   14.8610   56.8650 O.3     4  THR4        0.0000
    104 CG2        42.1120   15.7190   58.4180 C.3     4  THR4        0.0000
    105 N          41.1760   11.0660   56.7320 N.am    5  ALA5        0.0000
    106 CA         40.4510    9.7500   56.5160 C.3     5  ALA5        0.0000
    107 C          40.5180    8.6670   57.6920 C.2     5  ALA5        0.0000
    108 O          40.3630    7.4250   57.5100 O.2     5  ALA5        0.0000
    109 CB         40.8640    9.1560   55.1550 C.3     5  ALA5        0.0000
    110 N          40.4920    9.2650   58.8940 N.am    6  ASP6        0.0000
    111 CA         41.2110    8.9130   60.1280 C.3     6  ASP6        0.0000
    112 C          41.5740    7.3780   60.4930 C.2     6  ASP6        0.0000
    113 O          42.4790    6.7440   59.8490 O.2     6  ASP6        0.0000
    114 CB         40.3970    9.6390   61.2070 C.3     6  ASP6        0.0000
    115 CG         41.1250    9.7880   62.4740 C.2     6  ASP6        0.0000
    116 OD2        40.8430   10.8120   63.1790 O.co2   6  ASP6       -0.5000
    117 OD1        41.9510    8.8820   62.7590 O.co2   6  ASP6       -0.5000
    118 N          43.1390    5.0260   47.2570 N.3     1  GLY1        0.0000
    119 CA         43.8820    6.0110   48.0970 C.3     1  GLY1        0.0000
    120 C          44.4710    7.2370   47.3950 C.2     1  GLY1        0.0000
    121 O          45.2250    7.1080   46.3710 O.2     1  GLY1        0.0000
    122 N          44.1750    8.4210   47.9600 N.am    2  ARG2        0.0000
    123 CA         44.3670    9.7860   47.3270 C.3     2  ARG2        0.0000
    124 C          43.8840    9.9490   45.8780 C.2     2  ARG2        0.0000
    125 O          43.0270   10.7760   45.6260 O.2     2  ARG2        0.0000
    126 CB         45.8020   10.3710   47.4890 C.3     2  ARG2        0.0000
    127 CG         46.9920    9.6550   46.8020 C.3     2  ARG2        0.0000
    128 CD         47.6810    8.5030   47.7100 C.3     2  ARG2        0.0000
    129 NE         48.2260    8.9890   49.0020 N.pl3   2  ARG2        0.3300
    130 CZ         48.0340    8.4150   50.1950 C.cat   2  ARG2        0.0000
    131 NH2        48.5800    8.9780   51.2790 N.pl3   2  ARG2        0.3300
    132 NH1        47.3240    7.2810   50.3290 N.pl3   2  ARG2        0.3300
    133 N          44.4350    9.1420   44.9450 N.am    3  GLY3        0.0000
    134 CA         44.1810    9.2530   43.5160 C.3     3  GLY3        0.0000
    135 C          44.2080   10.6780   43.0050 C.2     3  GLY3        0.0000
    136 O          44.2900   11.6540   43.7670 O.2     3  GLY3        0.0000
    137 N          38.6380    3.3940   56.4300 N.3     1  ARG1        0.0000
    138 CA         39.6560    4.1820   55.7760 C.3     1  ARG1        0.0000
    139 C          39.5420    4.0950   54.2850 C.2     1  ARG1        0.0000
    140 O          39.5970    5.0490   53.6120 O.2     1  ARG1        0.0000
    141 CB         41.0590    3.7790   56.2250 C.3     1  ARG1        0.0000
    142 CG         42.2030    4.2540   55.2350 C.3     1  ARG1        0.0000
    143 CD         43.4160    4.9790   55.9100 C.3     1  ARG1        0.0000
    144 NE         44.4840    4.0000   56.0650 N.pl3   1  ARG1        0.3300
    145 CZ         44.8300    3.3880   57.2160 C.cat   1  ARG1        0.0000
    146 NH1        45.8640    2.5120   57.2190 N.pl3   1  ARG1        0.3300
    147 NH2        44.2040    3.7020   58.3700 N.pl3   1  ARG1        0.3300
    148 N          36.4770    6.1650   53.3800 N.3     1  ASN1        0.0000
    149 CA         36.6860    7.5900   53.5960 C.3     1  ASN1        0.0000
    150 C          37.5240    8.2140   52.4780 C.2     1  ASN1        0.0000
    151 O          37.3940    9.3780   52.1340 O.2     1  ASN1        0.0000
    152 CB         37.3580    7.7920   54.9820 C.3     1  ASN1        0.0000
    153 CG         36.4210    7.5710   56.1340 C.2     1  ASN1        0.0000
    154 OD1        35.2100    7.5750   55.9850 O.2     1  ASN1        0.0000
    155 ND2        36.9830    7.4630   57.3130 N.am    1  ASN1        0.0000
    156 N          38.4030    7.3900   51.9150 N.am    2  GLN2        0.0000
    157 CA         39.2180    7.7620   50.7690 C.3     2  GLN2        0.0000
    158 C          38.4450    7.8320   49.4680 C.2     2  GLN2        0.0000
    159 O          38.6810    8.6960   48.6380 O.2     2  GLN2        0.0000
    160 CB         40.3280    6.7240   50.6530 C.3     2  GLN2        0.0000
    161 CG         41.3640    6.8130   51.7980 C.3     2  GLN2        0.0000
    162 CD         42.4830    5.7120   51.6920 C.2     2  GLN2        0.0000
    163 OE1        42.3860    4.7210   50.8680 O.2     2  GLN2        0.0000
    164 NE2        43.5690    5.9000   52.5250 N.am    2  GLN2        0.0000
    165 N          37.5450    6.8810   49.2270 N.am    3  LEU3        0.0000
    166 CA         36.6350    7.0610   48.1430 C.3     3  LEU3        0.0000
    167 C          35.8910    8.4210   48.3090 C.2     3  LEU3        0.0000
    168 O          36.0030    9.2990   47.4780 O.2     3  LEU3        0.0000
    169 CB         35.6860    5.9050   48.0760 C.3     3  LEU3        0.0000
    170 CG         34.6220    5.9680   47.0310 C.3     3  LEU3        0.0000
    171 CD1        35.2440    6.0440   45.6080 C.3     3  LEU3        0.0000
    172 CD2        33.5440    4.7950   47.1460 C.3     3  LEU3        0.0000
    173 N          35.1540    8.5400   49.4140 N.am    4  ARG4        0.0000
    174 CA         34.3980    9.7420   49.7770 C.3     4  ARG4        0.0000
    175 C          35.1330   11.0930   49.5620 C.2     4  ARG4        0.0000
    176 O          34.5170   12.0970   49.1040 O.2     4  ARG4        0.0000
    177 CB         34.0620    9.5890   51.2470 C.3     4  ARG4        0.0000
    178 CG         33.0550   10.3670   51.7060 C.3     4  ARG4        0.0000
    179 CD         32.7450    9.9470   53.1100 C.3     4  ARG4        0.0000
    180 NE         33.7080   10.4500   54.0880 N.pl3   4  ARG4        0.3300
    181 CZ         33.5450   10.4680   55.4110 C.cat   4  ARG4        0.0000
    182 NH1        32.4790    9.9660   56.0610 N.pl3   4  ARG4        0.3300
    183 NH2        34.5120   10.9530   56.1220 N.pl3   4  ARG4        0.3300
    184 N          36.4330   11.0910   49.9760 N.am    5  GLY5        0.0000
    185 CA         37.2870   12.2740   50.0940 C.3     5  GLY5        0.0000
    186 C          37.6630   12.7620   48.6950 C.2     5  GLY5        0.0000
    187 O          38.2280   13.7910   48.5370 O.2     5  GLY5        0.0000
    188 N          37.3730   12.0030   47.6780 N.am    6  ARG6        0.0000
    189 CA         37.5350   12.4170   46.3400 C.3     6  ARG6        0.0000
    190 C          36.6160   13.5170   45.9490 C.2     6  ARG6        0.0000
    191 O          36.8720   14.2040   44.9300 O.2     6  ARG6        0.0000
    192 CB         37.1360   11.2830   45.4080 C.3     6  ARG6        0.0000
    193 CG         38.1870   10.5940   44.7310 C.3     6  ARG6        0.0000
    194 CD         38.9020    9.7480   45.6590 C.3     6  ARG6        0.0000
    195 NE         39.7980    8.9230   44.8630 N.pl3   6  ARG6        0.3300
    196 CZ         40.4720    7.8580   45.3150 C.cat   6  ARG6        0.0000
    197 NH1        41.3090    7.2110   44.4720 N.pl3   6  ARG6        0.3300
    198 NH2        40.3210    7.4270   46.6030 N.pl3   6  ARG6        0.3300
    199 N          36.7600   18.5190   47.7450 N.3     1  ARG1        0.0000
    200 CA         38.1700   18.9780   47.9960 C.3     1  ARG1        0.0000
    201 C          38.2010   20.4560   47.9180 C.2     1  ARG1        0.0000
    202 O          37.4940   21.0410   47.1350 O.2     1  ARG1        0.0000
    203 CB         39.2430   18.3730   47.0170 C.3     1  ARG1        0.0000
    204 CG         39.2680   16.8720   46.9550 C.3     1  ARG1        0.0000
    205 CD         40.6350   16.2310   46.6350 C.3     1  ARG1        0.0000
    206 NE         40.6690   14.7770   46.9570 N.pl3   1  ARG1        0.3300
    207 CZ         41.3080   13.8390   46.2400 C.cat   1  ARG1        0.0000
    208 NH1        41.9780   14.1050   45.1500 N.pl3   1  ARG1        0.3300
    209 NH2        41.2970   12.5740   46.6120 N.pl3   1  ARG1        0.3300
@<TRIPOS>UNITY_ATOM_ATTR
38 1
charge -1
56 1
charge -1
71 1
charge -1
116 1
charge -1
@<TRIPOS>BOND
     1     1     2    1
     2     2     3    1
     3     2     5    1
     4     3     4    2
     5     3     9   am
     6     5     6    1
     7     6     7    1
     8     7     8    1
     9     9    10    1
    10    10    11    1
    11    10    13    1
    12    11    20   am
    13    11    12    2
    14    13    14    1
    15    14    15    1
    16    15    16    1
    17    16    17    2
    18    17    18    1
    19    17    19    1
    20    20    21    1
    21    21    24    1
    22    21    22    1
    23    22    27   am
    24    22    23    2
    25    24    26    1
    26    24    25    1
    27    27    28    1
    28    28    29    1
    29    29    30    2
    30    29    31   am
    31    31    32    1
    32    32    33    1
    33    32    35    1
    34    33    34    2
    35    35    36    1
    36    36    37    1
    37    37    39   ar
    38    37    38   ar
    39    40    41    1
    40    41    42    1
    41    41    44    1
    42    42    43    2
    43    44    45    1
    44    45    46    1
    45    46    47    1
    46    47    48    1
    47    49    50    1
    48    50    53    1
    49    50    51    1
    50    51    52    2
    51    51    58   am
    52    53    54    1
    53    54    55    1
    54    55    56   ar
    55    55    57   ar
    56    58    59    1
    57    59    60    1
    58    59    62    1
    59    60    65   am
    60    60    61    2
    61    62    64    1
    62    62    63    1
    63    65    66    1
    64    66    69    1
    65    66    67    1
    66    67    73   am
    67    67    68    2
    68    69    70    1
    69    70    72   ar
    70    70    71   ar
    71    73    74    1
    72    74    77    1
    73    74    75    1
    74    75    76    2
    75    77    78    1
    76    79    80    1
    77    80    83    1
    78    80    81    1
    79    81    82    2
    80    81    87   am
    81    83    84    1
    82    84    85    1
    83    85    86    1
    84    87    88    1
    85    88    89    1
    86    88    91    1
    87    89    94   am
    88    89    90    2
    89    91    92    1
    90    91    93    1
    91    94    95    1
    92    95    96    1
    93    96    98   am
    94    96    97    2
    95    98    99    1
    96    99   100    1
    97    99   102    1
    98   100   105   am
    99   100   101    2
   100   102   103    1
   101   102   104    1
   102   105   106    1
   103   106   109    1
   104   106   107    1
   105   107   108    2
   106   107   110   am
   107   110   111    1
   108   111   112    1
   109   111   114    1
   110   112   113    2
   111   114   115    1
   112   115   117   ar
   113   115   116   ar
   114   118   119    1
   115   119   120    1
   116   120   121    2
   117   120   122   am
   118   122   123    1
   119   123   124    1
   120   123   126    1
   121   124   133   am
   122   124   125    2
   123   126   127    1
   124   127   128    1
   125   128   129    1
   126   129   130    2
   127   130   132    1
   128   130   131    1
   129   133   134    1
   130   134   135    1
   131   135   136    2
   132   137   138    1
   133   138   139    1
   134   138   141    1
   135   139   140    2
   136   141   142    1
   137   142   143    1
   138   143   144    1
   139   144   145    2
   140   145   146    1
   141   145   147    1
   142   148   149    1
   143   149   150    1
   144   149   152    1
   145   150   156   am
   146   150   151    2
   147   152   153    1
   148   153   154    2
   149   153   155   am
   150   156   157    1
   151   157   158    1
   152   157   160    1
   153   158   159    2
   154   158   165   am
   155   160   161    1
   156   161   162    1
   157   162   163    2
   158   162   164   am
   159   165   166    1
   160   166   169    1
   161   166   167    1
   162   167   168    2
   163   167   173   am
   164   169   170    1
   165   170   171    1
   166   170   172    1
   167   173   174    1
   168   174   175    1
   169   174   177    1
   170   175   176    2
   171   175   184   am
   172   177   178    1
   173   178   179    1
   174   179   180    1
   175   180   181    2
   176   181   182    1
   177   181   183    1
   178   184   185    1
   179   185   186    1
   180   186   188   am
   181   186   187    2
   182   188   189    1
   183   189   192    1
   184   189   190    1
   185   190   191    2
   186   192   193    1
   187   193   194    1
   188   194   195    1
   189   195   196    2
   190   196   197    1
   191   196   198    1
   192   199   200    1
   193   200   203    1
   194   200   201    1
   195   201   202    2
   196   203   204    1
   197   204   205    1
   198   205   206    1
   199   206   207    2
   200   207   208    1
   201   207   209    1
