@<TRIPOS>MOLECULE
./2fsg/protein.pdb
 161 153 0 0 0
SMALL
GASTEIGER

@<TRIPOS>ATOM
      1 N          55.9050   -3.2420   62.5060 N.3     1  ARG1        0.0000
      2 CA         56.4420   -4.4570   63.0840 C.3     1  ARG1        0.0000
      3 C          57.2700   -5.1920   62.0600 C.2     1  ARG1        0.0000
      4 O          57.7830   -6.2380   62.3480 O.2     1  ARG1        0.0000
      5 CB         55.2720   -5.3620   63.4640 C.3     1  ARG1        0.0000
      6 CG         54.6210   -5.0120   64.7940 C.3     1  ARG1        0.0000
      7 CD         53.6760   -6.1150   65.2900 C.3     1  ARG1        0.0000
      8 NE         54.5190   -7.1760   65.8170 N.pl3   1  ARG1        0.3300
      9 CZ         54.5360   -8.4180   65.4160 C.cat   1  ARG1        0.0000
     10 NH1        53.6820   -8.8540   64.5210 N.pl3   1  ARG1        0.3300
     11 NH2        55.4180   -9.2640   65.9470 N.pl3   1  ARG1        0.3300
     12 N          60.3680   -6.3440   60.0640 N.3     1  PRO1        0.0000
     13 CA         61.7780   -6.2720   60.3370 C.3     1  PRO1        0.0000
     14 C          62.6170   -5.8810   59.1140 C.2     1  PRO1        0.0000
     15 O          62.3750   -6.3660   57.9570 O.2     1  PRO1        0.0000
     16 CB         62.1210   -7.6640   60.8050 C.3     1  PRO1        0.0000
     17 CG         60.8330   -8.4700   60.8000 C.3     1  PRO1        0.0000
     18 CD         59.9310   -7.7450   59.9280 C.3     1  PRO1        0.0000
     19 N          69.0070   -6.7500   62.9280 N.3     1  SER1        0.0000
     20 CA         67.5820   -6.5800   62.7090 C.3     1  SER1        0.0000
     21 C          67.0400   -5.4790   63.5210 C.2     1  SER1        0.0000
     22 O          67.5450   -5.2280   64.5760 O.2     1  SER1        0.0000
     23 CB         66.7280   -7.8200   63.0220 C.3     1  SER1        0.0000
     24 OG         65.5410   -7.7320   62.1710 O.3     1  SER1        0.0000
     25 N          66.0400   -4.7810   62.9730 N.am    2  ILE2        0.0000
     26 CA         65.2510   -3.7800   63.7480 C.3     2  ILE2        0.0000
     27 C          63.9050   -3.6250   63.0820 C.2     2  ILE2        0.0000
     28 O          63.8620   -3.5870   61.8470 O.2     2  ILE2        0.0000
     29 CB         65.9150   -2.4430   63.7630 C.3     2  ILE2        0.0000
     30 CG1        65.3620   -1.6040   64.9370 C.3     2  ILE2        0.0000
     31 CG2        65.8820   -1.6790   62.3080 C.3     2  ILE2        0.0000
     32 CD1        66.2440   -0.3870   65.2150 C.3     2  ILE2        0.0000
     33 N          62.8340   -3.5680   63.8360 N.am    3  THR3        0.0000
     34 CA         61.5730   -3.1980   63.2090 C.3     3  THR3        0.0000
     35 C          61.4760   -1.6940   62.9350 C.2     3  THR3        0.0000
     36 O          62.1940   -0.8490   63.5660 O.2     3  THR3        0.0000
     37 CB         60.4140   -3.5430   64.0710 C.3     3  THR3        0.0000
     38 OG1        60.4450   -2.7250   65.2420 O.3     3  THR3        0.0000
     39 CG2        60.4150   -5.0330   64.5150 C.3     3  THR3        0.0000
     40 N          60.7290    0.3970   65.9870 N.3     1  ASN1        0.0000
     41 CA         61.7800    0.6250   66.9390 C.3     1  ASN1        0.0000
     42 C          62.9340    1.4780   66.3690 C.2     1  ASN1        0.0000
     43 O          63.6970    2.0580   67.1240 O.2     1  ASN1        0.0000
     44 CB         62.2260   -0.7210   67.4530 C.3     1  ASN1        0.0000
     45 CG         61.2160   -1.3270   68.4050 C.2     1  ASN1        0.0000
     46 OD1        60.6680   -0.6310   69.2920 O.2     1  ASN1        0.0000
     47 ND2        60.9910   -2.5820   68.2580 N.am    1  ASN1        0.0000
     48 N          57.6020   -7.7930   71.0540 N.3     1  ASP1        0.0000
     49 CA         58.5620   -7.0780   70.2830 C.3     1  ASP1        0.0000
     50 C          59.4560   -6.2320   71.2580 C.2     1  ASP1        0.0000
     51 O          60.6540   -5.9810   70.9770 O.2     1  ASP1        0.0000
     52 CB         57.8320   -6.1380   69.2920 C.3     1  ASP1        0.0000
     53 CG         57.3470   -6.8520   68.0020 C.2     1  ASP1        0.0000
     54 OD2        57.4320   -8.1120   67.8710 O.co2   1  ASP1       -0.5000
     55 OD1        56.9560   -6.0820   67.0580 O.co2   1  ASP1       -0.5000
     56 N          62.6300   -7.8270   72.6640 N.3     1  ALA1        0.0000
     57 CA         63.7900   -7.8490   71.8090 C.3     1  ALA1        0.0000
     58 C          64.2720   -6.4250   71.6390 C.2     1  ALA1        0.0000
     59 O          65.4770   -6.2030   71.4090 O.2     1  ALA1        0.0000
     60 CB         63.4390   -8.4310   70.4530 C.3     1  ALA1        0.0000
     61 N          63.3480   -5.4650   71.6330 N.am    2  ASN2        0.0000
     62 CA         63.7040   -4.0990   71.4150 C.3     2  ASN2        0.0000
     63 C          64.7520   -3.7100   72.4690 C.2     2  ASN2        0.0000
     64 O          65.7930   -3.2060   72.1200 O.2     2  ASN2        0.0000
     65 CB         62.4650   -3.1690   71.5500 C.3     2  ASN2        0.0000
     66 CG         62.8060   -1.6460   71.4610 C.2     2  ASN2        0.0000
     67 OD1        63.5440   -1.2020   70.5940 O.2     2  ASN2        0.0000
     68 ND2        62.1770   -0.8530   72.3120 N.am    2  ASN2        0.0000
     69 N          66.6930   -5.3460   74.3890 N.3     1  GLN1        0.0000
     70 CA         67.8390   -6.1390   74.3120 C.3     1  GLN1        0.0000
     71 C          68.7380   -5.5520   73.2350 C.2     1  GLN1        0.0000
     72 O          69.9340   -5.3600   73.4660 O.2     1  GLN1        0.0000
     73 CB         67.4750   -7.5950   73.9540 C.3     1  GLN1        0.0000
     74 CG         66.9070   -8.4180   75.0650 C.3     1  GLN1        0.0000
     75 CD         66.8450   -9.9270   74.7040 C.2     1  GLN1        0.0000
     76 OE1        67.0900  -10.2990   73.5310 O.2     1  GLN1        0.0000
     77 NE2        66.4090  -10.7780   75.6770 N.am    1  GLN1        0.0000
     78 N          68.1450   -5.1880   72.1090 N.am    2  ARG2        0.0000
     79 CA         68.8850   -4.5270   71.0480 C.3     2  ARG2        0.0000
     80 C          69.3390   -3.1260   71.4940 C.2     2  ARG2        0.0000
     81 O          70.4940   -2.7210   71.2170 O.2     2  ARG2        0.0000
     82 CB         68.0240   -4.4850   69.7360 C.3     2  ARG2        0.0000
     83 CG         68.7300   -4.1400   68.3640 C.3     2  ARG2        0.0000
     84 CD         68.0130   -3.1160   67.5070 C.3     2  ARG2        0.0000
     85 NE         67.7960   -1.8560   68.2340 N.pl3   2  ARG2        0.3300
     86 CZ         66.6920   -1.4220   68.7820 C.cat   2  ARG2        0.0000
     87 NH1        65.5640   -2.1570   68.7640 N.pl3   2  ARG2        0.3300
     88 NH2        66.7310   -0.2240   69.4270 N.pl3   2  ARG2        0.3300
     89 N          72.4110   -3.8380   73.7820 N.3     1  ILE1        0.0000
     90 CA         73.5470   -4.3740   73.0620 C.3     1  ILE1        0.0000
     91 C          74.1000   -3.3940   72.0660 C.2     1  ILE1        0.0000
     92 O          75.2780   -3.2470   71.9790 O.2     1  ILE1        0.0000
     93 CB         73.3010   -5.7770   72.5210 C.3     1  ILE1        0.0000
     94 CG1        74.6120   -6.4290   72.1980 C.3     1  ILE1        0.0000
     95 CG2        72.4400   -5.8250   71.3440 C.3     1  ILE1        0.0000
     96 CD1        75.3090   -6.9100   73.4310 C.3     1  ILE1        0.0000
     97 N          73.2680   -2.6670   71.3510 N.am    2  TYR2        0.0000
     98 CA         73.8150   -1.5650   70.5100 C.3     2  TYR2        0.0000
     99 C          74.4820   -0.4000   71.2710 C.2     2  TYR2        0.0000
    100 O          75.4910    0.1650   70.8350 O.2     2  TYR2        0.0000
    101 CB         72.8000   -1.0640   69.4960 C.3     2  TYR2        0.0000
    102 CG         72.6350   -1.9550   68.2980 C.ar    2  TYR2        0.0000
    103 CD2        73.2170   -3.1880   68.2340 C.ar    2  TYR2        0.0000
    104 CD1        71.8040   -1.5850   67.2490 C.ar    2  TYR2        0.0000
    105 CE2        73.0310   -4.0070   67.1390 C.ar    2  TYR2        0.0000
    106 CE1        71.5940   -2.3910   66.1150 C.ar    2  TYR2        0.0000
    107 CZ         72.1710   -3.6210   66.1180 C.ar    2  TYR2        0.0000
    108 OH         71.9920   -4.4540   65.0530 O.3     2  TYR2        0.0000
    109 N          75.5840  -12.0300   69.0280 N.3     1  TRP1        0.0000
    110 CA         74.3180  -11.3660   68.8740 C.3     1  TRP1        0.0000
    111 C          73.4760  -12.0270   67.7930 C.2     1  TRP1        0.0000
    112 O          72.3070  -12.2130   67.9020 O.2     1  TRP1        0.0000
    113 CB         74.5980   -9.9590   68.5210 C.3     1  TRP1        0.0000
    114 CG         73.3330   -9.1660   68.3510 C.2     1  TRP1        0.0000
    115 CD1        72.9120   -8.5150   67.2620 C.2     1  TRP1        0.0000
    116 CD2        72.3010   -9.0740   69.3240 C.3     1  TRP1        0.0000
    117 NE1        71.6310   -7.9080   67.4920 N.2     1  TRP1        0.0000
    118 CE2        71.2650   -8.2500   68.7830 C.2     1  TRP1        0.0000
    119 CE3        72.1460   -9.6160   70.6310 C.2     1  TRP1        0.0000
    120 CZ2        70.1220   -7.9140   69.5330 C.2     1  TRP1        0.0000
    121 CZ3        71.0290   -9.2410   71.3690 C.2     1  TRP1        0.0000
    122 CH2        70.0290   -8.4210   70.7990 C.2     1  TRP1        0.0000
    123 N          70.0410  -13.7200   68.2960 N.3     1  LEU1        0.0000
    124 CA         68.7930  -13.3250   67.5430 C.3     1  LEU1        0.0000
    125 C          68.1180  -14.5850   67.0330 C.2     1  LEU1        0.0000
    126 O          66.9180  -14.7680   67.1100 O.2     1  LEU1        0.0000
    127 CB         69.1500  -12.4970   66.3510 C.3     1  LEU1        0.0000
    128 CG         69.4770  -11.0100   66.5500 C.3     1  LEU1        0.0000
    129 CD1        69.7110  -10.3430   65.1940 C.3     1  LEU1        0.0000
    130 CD2        68.3780  -10.2610   67.3370 C.3     1  LEU1        0.0000
    131 N          66.5330  -16.2730   70.1030 N.3     1  UNL1        0.0000
    132 CA         65.3840  -15.5330   70.5290 C.3     1  UNL1        0.0000
    133 C          64.2350  -15.8070   69.5350 C.2     1  UNL1        0.0000
    134 O          63.0750  -15.8530   69.8790 O.2     1  UNL1        0.0000
    135 C          65.6500  -14.0640   70.5050 C.3     1  UNL1        0.0000
    136 C          66.3670  -13.5820   71.6100 C.3     1  UNL1        0.0000
    137 SE         65.4750  -13.8150   73.3450 Se      1  UNL1        0.0000
    138 C          63.9180  -12.2400   73.0830 C.3     1  UNL1        0.0000
    139 N          60.6920  -17.6760   70.7000 N.3     1  ARG1        0.0000
    140 CA         59.4460  -16.9680   70.4980 C.3     1  ARG1        0.0000
    141 C          58.4160  -17.7500   69.6770 C.2     1  ARG1        0.0000
    142 O          57.2520  -17.6270   69.9350 O.2     1  ARG1        0.0000
    143 CB         59.6700  -15.6170   69.8010 C.3     1  ARG1        0.0000
    144 CG         58.4060  -14.7100   69.8640 C.3     1  ARG1        0.0000
    145 CD         58.6510  -13.3170   69.4270 C.3     1  ARG1        0.0000
    146 NE         57.3730  -12.6080   69.1460 N.pl3   1  ARG1        0.3300
    147 CZ         57.2630  -11.3010   68.8570 C.cat   1  ARG1        0.0000
    148 NH2        58.3270  -10.4850   68.8570 N.pl3   1  ARG1        0.3300
    149 NH1        56.0640  -10.7880   68.6240 N.pl3   1  ARG1        0.3300
    150 N          58.5090  -15.8540   79.0380 N.3     1  TYR1        0.0000
    151 CA         59.2800  -15.5680   77.8840 C.3     1  TYR1        0.0000
    152 C          60.2560  -14.4460   78.2540 C.2     1  TYR1        0.0000
    153 O          61.4320  -14.4710   77.8880 O.2     1  TYR1        0.0000
    154 CB         58.3050  -15.1040   76.7640 C.3     1  TYR1        0.0000
    155 CG         58.9920  -14.5750   75.5380 C.ar    1  TYR1        0.0000
    156 CD1        59.5550  -15.4280   74.5960 C.ar    1  TYR1        0.0000
    157 CD2        59.1080  -13.2090   75.3220 C.ar    1  TYR1        0.0000
    158 CE1        60.2180  -14.9090   73.4630 C.ar    1  TYR1        0.0000
    159 CE2        59.7730  -12.7090   74.2570 C.ar    1  TYR1        0.0000
    160 CZ         60.3020  -13.5440   73.3060 C.ar    1  TYR1        0.0000
    161 OH         60.9630  -13.0160   72.2170 O.3     1  TYR1        0.0000
@<TRIPOS>UNITY_ATOM_ATTR
54 1
charge -1
@<TRIPOS>BOND
     1     1     2    1
     2     2     3    1
     3     2     5    1
     4     3     4    2
     5     5     6    1
     6     6     7    1
     7     7     8    1
     8     8     9    2
     9     9    10    1
    10     9    11    1
    11    12    18    1
    12    12    13    1
    13    13    14    1
    14    13    16    1
    15    14    15    2
    16    16    17    1
    17    17    18    1
    18    19    20    1
    19    20    23    1
    20    20    21    1
    21    21    25   am
    22    21    22    2
    23    23    24    1
    24    25    26    1
    25    26    27    1
    26    26    29    1
    27    27    28    2
    28    27    33   am
    29    29    31    1
    30    29    30    1
    31    30    32    1
    32    33    34    1
    33    34    35    1
    34    34    37    1
    35    35    36    2
    36    37    39    1
    37    37    38    1
    38    40    41    1
    39    41    42    1
    40    41    44    1
    41    42    43    2
    42    44    45    1
    43    45    47   am
    44    45    46    2
    45    48    49    1
    46    49    52    1
    47    49    50    1
    48    50    51    2
    49    52    53    1
    50    53    55   ar
    51    53    54   ar
    52    56    57    1
    53    57    60    1
    54    57    58    1
    55    58    59    2
    56    58    61   am
    57    61    62    1
    58    62    65    1
    59    62    63    1
    60    63    64    2
    61    65    66    1
    62    66    67    2
    63    66    68   am
    64    69    70    1
    65    70    71    1
    66    70    73    1
    67    71    78   am
    68    71    72    2
    69    73    74    1
    70    74    75    1
    71    75    76    2
    72    75    77   am
    73    78    79    1
    74    79    82    1
    75    79    80    1
    76    80    81    2
    77    82    83    1
    78    83    84    1
    79    84    85    1
    80    85    86    2
    81    86    87    1
    82    86    88    1
    83    89    90    1
    84    90    91    1
    85    90    93    1
    86    91    97   am
    87    91    92    2
    88    93    95    1
    89    93    94    1
    90    94    96    1
    91    97    98    1
    92    98   101    1
    93    98    99    1
    94    99   100    2
    95   101   102    1
    96   102   104   ar
    97   102   103   ar
    98   103   105   ar
    99   104   106   ar
   100   105   107   ar
   101   106   107   ar
   102   107   108    1
   103   109   110    1
   104   110   111    1
   105   110   113    1
   106   111   112    2
   107   113   114    1
   108   114   115    2
   109   114   116    1
   110   115   117    1
   111   116   118    1
   112   116   119    1
   113   117   118    2
   114   118   120    1
   115   119   121    2
   116   120   122    2
   117   121   122    1
   118   123   124    1
   119   124   127    1
   120   124   125    1
   121   125   126    2
   122   127   128    1
   123   128   129    1
   124   128   130    1
   125   131   132    1
   126   132   133    1
   127   132   135    1
   128   133   134    2
   129   135   136    1
   130   136   137    1
   131   137   138    1
   132   139   140    1
   133   140   141    1
   134   140   143    1
   135   141   142    2
   136   143   144    1
   137   144   145    1
   138   145   146    1
   139   146   147    2
   140   147   149    1
   141   147   148    1
   142   150   151    1
   143   151   154    1
   144   151   152    1
   145   152   153    2
   146   154   155    1
   147   155   156   ar
   148   155   157   ar
   149   156   158   ar
   150   157   159   ar
   151   158   160   ar
   152   159   160   ar
   153   160   161    1
