@<TRIPOS>MOLECULE
./1jie/protein.pdb
 216 215 0 0 0
SMALL
GASTEIGER

@<TRIPOS>ATOM
      1 N          12.4830   -5.1620   12.5610 N.3     1  LEU1       -0.1245
      2 CA         13.5190   -5.6780   13.4150 C.3     1  LEU1        0.1561
      3 C          14.6910   -6.1250   12.5030 C.2     1  LEU1        0.2260
      4 O          14.5080   -6.4380   11.3150 O.2     1  LEU1       -0.2867
      5 CB         13.0780   -6.8700   14.2260 C.3     1  LEU1        0.0270
      6 CG         11.7330   -6.6810   14.9760 C.3     1  LEU1        0.0019
      7 CD1        11.4620   -7.9350   15.7730 C.3     1  LEU1        0.0001
      8 CD2        11.8080   -5.3850   15.7770 C.3     1  LEU1        0.0001
      9 N          15.8290  -15.8290   14.2100 N.3     1  ASN1       -0.1225
     10 CA         15.0090  -14.8620   14.9580 C.3     1  ASN1        0.1785
     11 C          13.5390  -15.0600   14.6500 C.2     1  ASN1        0.2597
     12 O          12.6810  -14.9180   15.5270 O.2     1  ASN1       -0.2718
     13 CB         15.4640  -13.4340   14.6360 C.3     1  ASN1        0.1169
     14 CG         15.0060  -12.4550   15.6960 C.2     1  ASN1        0.2627
     15 OD1        15.2060  -12.7000   16.8930 O.2     1  ASN1       -0.2716
     16 ND2        14.4000  -11.3500   15.2700 N.am    1  ASN1       -0.0877
     17 N          13.2220  -15.4010   13.3950 N.am    2  VAL2       -0.1980
     18 CA         11.8270  -15.7330   13.0740 C.3     2  VAL2        0.1595
     19 C          11.3570  -16.9090   13.9070 C.2     2  VAL2        0.2287
     20 O          10.2380  -16.9800   14.4100 O.2     2  VAL2       -0.2864
     21 CB         11.6580  -16.0760   11.5750 C.3     2  VAL2        0.0276
     22 CG2        10.3760  -16.8690   11.2450 C.3     2  VAL2        0.0022
     23 CG1        11.6720  -14.8020   10.7470 C.3     2  VAL2        0.0022
     24 N          12.0240  -17.7560   16.8850 N.3     1  PHE1       -0.1227
     25 CA         11.6690  -17.3650   18.2490 C.3     1  PHE1        0.1736
     26 C          10.3130  -16.6540   18.2750 C.2     1  PHE1        0.2595
     27 O           9.4640  -16.9160   19.1250 O.2     1  PHE1       -0.2718
     28 CB         12.7690  -16.4830   18.8470 C.3     1  PHE1        0.0547
     29 CG         12.4270  -15.6850   20.0940 C.ar    1  PHE1       -0.0202
     30 CD2        12.5440  -16.2660   21.3390 C.ar    1  PHE1       -0.0042
     31 CD1        12.0020  -14.3820   20.0520 C.ar    1  PHE1       -0.0042
     32 CE2        12.2320  -15.5500   22.4850 C.ar    1  PHE1       -0.0003
     33 CE1        11.6910  -13.6220   21.1630 C.ar    1  PHE1       -0.0003
     34 CZ         11.8100  -14.2380   22.3990 C.ar    1  PHE1       -0.0000
     35 N          10.0600  -15.7190   17.3600 N.am    2  TRP2       -0.1962
     36 CA          8.7740  -15.0020   17.4080 C.3     2  TRP2        0.1768
     37 C           7.5980  -15.9150   17.1840 C.2     2  TRP2        0.2619
     38 O           6.4950  -15.7900   17.6480 O.2     2  TRP2       -0.2715
     39 CB          8.8570  -13.8700   16.3360 C.3     2  TRP2        0.0553
     40 CG          9.7360  -12.7770   16.8870 C.2     2  TRP2       -0.0136
     41 CD1        11.0700  -12.5740   16.7290 C.2     2  TRP2        0.0907
     42 CD2         9.2560  -11.7210   17.7380 C.3     2  TRP2        0.0819
     43 NE1        11.4400  -11.4430   17.4300 N.2     2  TRP2       -0.2482
     44 CE2        10.3530  -10.9010   18.0580 C.2     2  TRP2        0.0665
     45 CE3         7.9690  -11.4300   18.2360 C.2     2  TRP2       -0.0164
     46 CZ2        10.2500   -9.7720   18.8700 C.2     2  TRP2        0.0153
     47 CZ3         7.8680  -10.3060   19.0410 C.2     2  TRP2       -0.0038
     48 CH2         8.9770   -9.5040   19.3470 C.2     2  TRP2        0.0009
     49 N           7.7740  -16.9490   16.3640 N.am    3  VAL3       -0.1977
     50 CA          6.7140  -17.8730   15.9610 C.3     3  VAL3        0.1596
     51 C           6.5810  -18.9960   16.9920 C.2     3  VAL3        0.2287
     52 O           5.5370  -19.1750   17.6070 O.2     3  VAL3       -0.2864
     53 CB          6.9460  -18.4650   14.5530 C.3     3  VAL3        0.0276
     54 CG2         5.7630  -19.3170   14.0710 C.3     3  VAL3        0.0022
     55 CG1         7.2400  -17.3820   13.5280 C.3     3  VAL3        0.0022
     56 N           7.0510  -17.0120   20.9850 N.3     1  LEU1       -0.1231
     57 CA          6.0680  -15.9920   21.3490 C.3     1  LEU1        0.1693
     58 C           4.7380  -16.1730   20.6500 C.2     1  LEU1        0.2593
     59 O           3.7990  -15.4190   20.9130 O.2     1  LEU1       -0.2718
     60 CB          6.6240  -14.5900   21.0250 C.3     1  LEU1        0.0284
     61 CG          7.9150  -14.2750   21.8040 C.3     1  LEU1        0.0019
     62 CD1         8.2890  -12.8020   21.7170 C.3     1  LEU1        0.0001
     63 CD2         7.7640  -14.7030   23.2510 C.3     1  LEU1        0.0001
     64 N           4.6020  -17.1550   19.7510 N.am    2  GLY2       -0.1942
     65 CA          3.3430  -17.4140   19.1300 C.3     2  GLY2        0.2014
     66 C           2.9600  -16.5540   17.9620 C.2     2  GLY2        0.2638
     67 O           1.7710  -16.4770   17.6150 O.2     2  GLY2       -0.2714
     68 N           3.9020  -15.8710   17.3220 N.am    3  PHE3       -0.1973
     69 CA          3.4530  -15.1410   16.1410 C.3     3  PHE3        0.1639
     70 C           3.2740  -16.1400   14.9900 C.2     3  PHE3        0.2290
     71 O           3.6020  -17.3220   15.1000 O.2     3  PHE3       -0.2864
     72 CB          4.3940  -14.0300   15.7680 C.3     3  PHE3        0.0560
     73 CG          4.3290  -12.7820   16.6260 C.ar    3  PHE3       -0.0200
     74 CD2         4.3330  -12.8280   18.0030 C.ar    3  PHE3       -0.0042
     75 CD1         4.2970  -11.5300   16.0400 C.ar    3  PHE3       -0.0042
     76 CE2         4.3330  -11.6720   18.7770 C.ar    3  PHE3       -0.0003
     77 CE1         4.2870  -10.3600   16.7770 C.ar    3  PHE3       -0.0003
     78 CZ          4.3120  -10.4230   18.1670 C.ar    3  PHE3       -0.0000
     79 N           6.2310  -11.4390   10.1470 N.3     1  VAL1       -0.1245
     80 CA          5.4930  -12.2340   11.1090 C.3     1  VAL1        0.1561
     81 C           4.2850  -11.3520   11.5000 C.2     1  VAL1        0.2260
     82 O           4.2900  -10.1460   11.2420 O.2     1  VAL1       -0.2867
     83 CB          6.2080  -12.6550   12.3910 C.3     1  VAL1        0.0252
     84 CG1         7.3360  -13.6380   12.0710 C.3     1  VAL1        0.0019
     85 CG2         6.8130  -11.4760   13.1630 C.3     1  VAL1        0.0019
     86 N          -1.3120   -6.7380   14.2200 N.3     1  ILE1       -0.1245
     87 CA         -0.0630   -6.0710   13.8670 C.3     1  ILE1        0.1561
     88 C           0.8220   -7.0220   13.0830 C.2     1  ILE1        0.2260
     89 O           0.6350   -8.2420   13.1590 O.2     1  ILE1       -0.2867
     90 CB          0.5900   -5.5300   15.1460 C.3     1  ILE1        0.0252
     91 CG1         1.0330   -6.5530   16.1610 C.3     1  ILE1        0.0019
     92 CG2        -0.4020   -4.5540   15.7870 C.3     1  ILE1        0.0019
     93 CD1         2.4430   -7.0870   16.0370 C.3     1  ILE1        0.0001
     94 N           5.1840   -7.4390   11.9670 N.3     1  LEU1       -0.1231
     95 CA          6.5590   -7.0480   12.1530 C.3     1  LEU1        0.1693
     96 C           7.3810   -7.5990   10.9840 C.2     1  LEU1        0.2592
     97 O           7.1960   -8.7660   10.6650 O.2     1  LEU1       -0.2718
     98 CB          7.2620   -7.6230   13.3870 C.3     1  LEU1        0.0284
     99 CG          6.8650   -7.0580   14.7380 C.3     1  LEU1        0.0019
    100 CD2         7.6140   -7.8480   15.8100 C.3     1  LEU1        0.0001
    101 CD1         7.1450   -5.5680   14.8310 C.3     1  LEU1        0.0001
    102 N           8.2650   -6.8230   10.4100 N.am    2  HIS2       -0.1962
    103 CA          9.1800   -7.4230    9.4300 C.3     2  HIS2        0.1787
    104 C          10.5040   -7.7200   10.1440 C.2     2  HIS2        0.2620
    105 O          10.8700   -7.1200   11.1560 O.2     2  HIS2       -0.2715
    106 CB          9.4310   -6.4570    8.2720 C.3     2  HIS2        0.0785
    107 CG          8.2640   -6.1990    7.3610 C.ar    2  HIS2        0.0821
    108 ND1         7.2380   -7.1090    7.1400 N.ar    2  HIS2       -0.2267
    109 CD2         8.0110   -5.1230    6.5810 C.ar    2  HIS2        0.1154
    110 CE1         6.3880   -6.5850    6.2650 C.ar    2  HIS2        0.1986
    111 NE2         6.8360   -5.3880    5.9330 N.ar    2  HIS2       -0.2212
    112 N          11.2930   -8.6440    9.6170 N.am    3  ILE3       -0.1977
    113 CA         12.6350   -8.9430   10.1030 C.3     3  ILE3        0.1596
    114 C          13.5440   -8.9210    8.8780 C.2     3  ILE3        0.2287
    115 O          13.3500   -9.7240    7.9520 O.2     3  ILE3       -0.2864
    116 CB         12.6400  -10.2830   10.8330 C.3     3  ILE3        0.0276
    117 CG1        11.5880  -10.2900   11.9720 C.3     3  ILE3        0.0022
    118 CG2        14.0230  -10.6220   11.3490 C.3     3  ILE3        0.0022
    119 CD1        11.2600  -11.6520   12.5140 C.3     3  ILE3        0.0001
    120 N           4.9690   -1.9960   20.7880 N.3     1  ILE1       -0.1245
    121 CA          3.7550   -2.6410   20.3190 C.3     1  ILE1        0.1561
    122 C           2.6720   -2.3440   21.3590 C.2     1  ILE1        0.2260
    123 O           2.9290   -2.5490   22.5450 O.2     1  ILE1       -0.2867
    124 CB          3.9760   -4.1380   20.1810 C.3     1  ILE1        0.0252
    125 CG1         5.0280   -4.5190   19.1350 C.3     1  ILE1        0.0019
    126 CG2         2.6480   -4.7990   19.8770 C.3     1  ILE1        0.0019
    127 CD1         5.0020   -5.9680   18.7110 C.3     1  ILE1        0.0001
    128 N           4.0090  -15.2040   28.5660 N.3     1  TRP1       -0.1241
    129 CA          5.3410  -15.4240   28.0210 C.3     1  TRP1        0.1602
    130 C           6.3120  -15.7490   29.1320 C.2     1  TRP1        0.2264
    131 O           7.3840  -16.3010   28.8910 O.2     1  TRP1       -0.2867
    132 CB          5.7630  -14.1820   27.2300 C.3     1  TRP1        0.0510
    133 CG          5.0790  -13.9970   25.8960 C.2     1  TRP1       -0.0168
    134 CD1         4.3390  -14.9310   25.2390 C.3     1  TRP1        0.1477
    135 CD2         5.0560  -12.8420   25.0300 C.ar    1  TRP1        0.0113
    136 NE1         3.8660  -14.4270   24.0480 N.2     1  TRP1       -0.2659
    137 CE2         4.2790  -13.1560   23.8820 C.ar    1  TRP1        0.0758
    138 CE3         5.5960  -11.5600   25.0840 C.ar    1  TRP1        0.0009
    139 CZ2         4.0350  -12.2920   22.8380 C.ar    1  TRP1        0.0187
    140 CZ3         5.3570  -10.6850   24.0400 C.ar    1  TRP1        0.0001
    141 CH2         4.5900  -11.0360   22.9270 C.ar    1  TRP1        0.0015
    142 N          10.9060   -7.2660   25.8120 N.3     1  VAL1       -0.1231
    143 CA         11.4980   -8.4860   25.3180 C.3     1  VAL1        0.1692
    144 C          12.7260   -8.1360   24.4490 C.2     1  VAL1        0.2592
    145 O          12.6370   -7.2660   23.5820 O.2     1  VAL1       -0.2718
    146 CB         10.5910   -9.3530   24.4430 C.3     1  VAL1        0.0266
    147 CG1        11.3400  -10.5870   23.9810 C.3     1  VAL1        0.0020
    148 CG2         9.3390   -9.7310   25.2400 C.3     1  VAL1        0.0020
    149 N          13.7780   -8.8620   24.7940 N.am    2  ARG2       -0.1966
    150 CA         14.9760   -8.8500   23.9980 C.3     2  ARG2        0.1729
    151 C          14.9860  -10.2070   23.2890 C.2     2  ARG2        0.2616
    152 O          15.0100  -11.2560   23.9690 O.2     2  ARG2       -0.2715
    153 CB         16.2410   -8.5850   24.8200 C.3     2  ARG2        0.0348
    154 CG         17.4770   -8.5250   23.9070 C.3     2  ARG2        0.0492
    155 CD         18.7800   -8.4290   24.7340 C.3     2  ARG2        0.2205
    156 NE         18.8450   -9.6620   25.5490 N.pl3   2  ARG2       -0.0865
    157 CZ         18.8850   -9.6950   26.8800 C.cat   2  ARG2        0.5346
    158 NH2        18.8920   -8.5750   27.5890 N.pl3   2  ARG2        0.1354
    159 NH1        18.9270  -10.8940   27.4550 N.pl3   2  ARG2        0.1354
    160 N          14.9590  -10.1750   21.9770 N.am    3  ASP3       -0.1960
    161 CA         14.9040  -11.3880   21.1350 C.3     3  ASP3        0.1768
    162 C          16.3160  -11.9650   20.9490 C.2     3  ASP3        0.2462
    163 O          17.2530  -11.2870   21.3680 O.2     3  ASP3       -0.2730
    164 CB         14.1760  -11.1050   19.8390 C.3     3  ASP3        0.0727
    165 CG         14.7490  -10.2870   18.7290 C.2     3  ASP3        0.0526
    166 OD2        15.9330   -9.8850   18.7130 O.co2   3  ASP3       -0.5491
    167 OD1        13.9740  -10.0270   17.7590 O.co2   3  ASP3       -0.5491
    168 N          16.5100  -13.1630   20.4170 N.am    4  PRO4       -0.2727
    169 CA         17.8610  -13.7130   20.2610 C.3     4  PRO4        0.1402
    170 C          18.7090  -12.8720   19.3130 C.2     4  PRO4        0.2269
    171 O          19.9250  -12.9660   19.4570 O.2     4  PRO4       -0.2865
    172 CB         17.6840  -15.0700   19.5840 C.3     4  PRO4        0.0296
    173 CG         16.2470  -15.4170   19.7920 C.3     4  PRO4        0.0237
    174 CD         15.4780  -14.1300   19.9700 C.3     4  PRO4        0.0939
    175 N          17.0930   -7.4660   19.2990 N.3     1  ASN1       -0.1225
    176 CA         16.1240   -6.3740   19.2170 C.3     1  ASN1        0.1785
    177 C          15.3960   -6.2120   20.5490 C.2     1  ASN1        0.2597
    178 O          15.1420   -7.1790   21.2330 O.2     1  ASN1       -0.2718
    179 CB         15.0430   -6.6710   18.1400 C.3     1  ASN1        0.1169
    180 CG         15.6020   -6.7430   16.7270 C.2     1  ASN1        0.2627
    181 OD1        15.7770   -5.7400   16.0480 O.2     1  ASN1       -0.2716
    182 ND2        15.9240   -7.9830   16.3570 N.am    1  ASN1       -0.0877
    183 N          15.0110   -5.0030   20.9320 N.am    2  CYS2       -0.1956
    184 CA         14.2640   -4.7520   22.1510 C.3     2  CYS2        0.1843
    185 C          12.9040   -4.2290   21.7710 C.2     2  CYS2        0.2625
    186 O          12.7170   -3.1440   21.2040 O.2     2  CYS2       -0.2714
    187 CB         15.0560   -3.7230   22.9710 C.3     2  CYS2        0.0997
    188 SG         14.2610   -3.2600   24.5180 S.3     2  CYS2       -0.0797
    189 N          11.8710   -5.0040   22.0790 N.am    3  VAL3       -0.1963
    190 CA         10.5100   -4.6320   21.7140 C.3     3  VAL3        0.1727
    191 C           9.6710   -4.4420   22.9740 C.2     3  VAL3        0.2616
    192 O           9.6250   -5.3300   23.8380 O.2     3  VAL3       -0.2715
    193 CB          9.9210   -5.7220   20.7750 C.3     3  VAL3        0.0290
    194 CG2         8.4980   -5.4010   20.3590 C.3     3  VAL3        0.0023
    195 CG1        10.8100   -5.8850   19.5330 C.3     3  VAL3        0.0023
    196 N           9.0430   -3.2920   23.0780 N.am    4  HIS4       -0.1959
    197 CA          8.2540   -2.9410   24.2520 C.3     4  HIS4        0.1787
    198 C           6.7800   -3.2530   24.0030 C.2     4  HIS4        0.2620
    199 O           6.3100   -2.9290   22.9020 O.2     4  HIS4       -0.2715
    200 CB          8.3710   -1.4520   24.5940 C.3     4  HIS4        0.0785
    201 CG          9.7350   -1.0060   24.9430 C.ar    4  HIS4        0.0821
    202 ND1        10.0890   -0.5190   26.1780 N.ar    4  HIS4       -0.2267
    203 CD2        10.8800   -0.9570   24.2200 C.ar    4  HIS4        0.1154
    204 CE1        11.3850   -0.1900   26.2090 C.ar    4  HIS4        0.1986
    205 NE2        11.8820   -0.4580   25.0110 N.ar    4  HIS4       -0.2212
    206 N           6.1640   -3.8580   24.9880 N.am    5  PHE5       -0.1974
    207 CA          4.7290   -4.2340   24.9940 C.3     5  PHE5        0.1639
    208 C           4.0530   -3.3260   25.9930 C.2     5  PHE5        0.2290
    209 O           4.3660   -3.4730   27.1730 O.2     5  PHE5       -0.2864
    210 CB          4.6080   -5.7190   25.3160 C.3     5  PHE5        0.0560
    211 CG          5.1450   -6.5250   24.1330 C.ar    5  PHE5       -0.0200
    212 CD2         6.4570   -6.8910   24.0500 C.ar    5  PHE5       -0.0042
    213 CD1         4.2610   -6.8700   23.1130 C.ar    5  PHE5       -0.0042
    214 CE2         6.9640   -7.6020   22.9930 C.ar    5  PHE5       -0.0003
    215 CE1         4.7720   -7.5720   22.0470 C.ar    5  PHE5       -0.0003
    216 CZ          6.1020   -7.9020   21.9460 C.ar    5  PHE5       -0.0000
@<TRIPOS>UNITY_ATOM_ATTR
166 1
charge -1
@<TRIPOS>BOND
     1     1     2    1
     2     2     3    1
     3     2     5    1
     4     3     4    2
     5     5     6    1
     6     6     7    1
     7     6     8    1
     8     9    10    1
     9    10    13    1
    10    10    11    1
    11    11    17   am
    12    11    12    2
    13    13    14    1
    14    14    16   am
    15    14    15    2
    16    17    18    1
    17    18    21    1
    18    18    19    1
    19    19    20    2
    20    21    23    1
    21    21    22    1
    22    24    25    1
    23    25    26    1
    24    25    28    1
    25    26    35   am
    26    26    27    2
    27    28    29    1
    28    29    31   ar
    29    29    30   ar
    30    30    32   ar
    31    31    33   ar
    32    32    34   ar
    33    33    34   ar
    34    35    36    1
    35    36    39    1
    36    36    37    1
    37    37    49   am
    38    37    38    2
    39    39    40    1
    40    40    41    2
    41    40    42    1
    42    41    43    1
    43    42    44    1
    44    42    45    1
    45    43    44    2
    46    44    46    1
    47    45    47    2
    48    46    48    2
    49    47    48    1
    50    49    50    1
    51    50    53    1
    52    50    51    1
    53    51    52    2
    54    53    55    1
    55    53    54    1
    56    56    57    1
    57    57    58    1
    58    57    60    1
    59    58    64   am
    60    58    59    2
    61    60    61    1
    62    61    62    1
    63    61    63    1
    64    64    65    1
    65    65    66    1
    66    66    68   am
    67    66    67    2
    68    68    69    1
    69    69    70    1
    70    69    72    1
    71    70    71    2
    72    72    73    1
    73    73    75   ar
    74    73    74   ar
    75    74    76   ar
    76    75    77   ar
    77    76    78   ar
    78    77    78   ar
    79    79    80    1
    80    80    81    1
    81    80    83    1
    82    81    82    2
    83    83    84    1
    84    83    85    1
    85    86    87    1
    86    87    88    1
    87    87    90    1
    88    88    89    2
    89    90    92    1
    90    90    91    1
    91    91    93    1
    92    94    95    1
    93    95    96    1
    94    95    98    1
    95    96   102   am
    96    96    97    2
    97    98    99    1
    98    99   101    1
    99    99   100    1
   100   102   103    1
   101   103   106    1
   102   103   104    1
   103   104   112   am
   104   104   105    2
   105   106   107    1
   106   107   109   ar
   107   107   108   ar
   108   108   110   ar
   109   109   111   ar
   110   110   111   ar
   111   112   113    1
   112   113   114    1
   113   113   116    1
   114   114   115    2
   115   116   118    1
   116   116   117    1
   117   117   119    1
   118   120   121    1
   119   121   124    1
   120   121   122    1
   121   122   123    2
   122   124   125    1
   123   124   126    1
   124   125   127    1
   125   128   129    1
   126   129   132    1
   127   129   130    1
   128   130   131    2
   129   132   133    1
   130   133   135    2
   131   133   134    1
   132   134   136    1
   133   135   137   ar
   134   135   138   ar
   135   136   137    2
   136   137   139   ar
   137   138   140   ar
   138   139   141   ar
   139   140   141   ar
   140   142   143    1
   141   143   146    1
   142   143   144    1
   143   144   145    2
   144   144   149   am
   145   146   147    1
   146   146   148    1
   147   149   150    1
   148   150   151    1
   149   150   153    1
   150   151   160   am
   151   151   152    2
   152   153   154    1
   153   154   155    1
   154   155   156    1
   155   156   157    2
   156   157   159    1
   157   157   158    1
   158   160   161    1
   159   161   164    1
   160   161   162    1
   161   162   168   am
   162   162   163    2
   163   164   165    1
   164   165   167   ar
   165   165   166   ar
   166   168   174    1
   167   168   169    1
   168   169   170    1
   169   169   172    1
   170   170   171    2
   171   172   173    1
   172   173   174    1
   173   175   176    1
   174   176   179    1
   175   176   177    1
   176   177   183   am
   177   177   178    2
   178   179   180    1
   179   180   181    2
   180   180   182   am
   181   183   184    1
   182   184   185    1
   183   184   187    1
   184   185   186    2
   185   185   189   am
   186   187   188    1
   187   189   190    1
   188   190   193    1
   189   190   191    1
   190   191   196   am
   191   191   192    2
   192   193   195    1
   193   193   194    1
   194   196   197    1
   195   197   198    1
   196   197   200    1
   197   198   199    2
   198   198   206   am
   199   200   201    1
   200   201   203   ar
   201   201   202   ar
   202   202   204   ar
   203   203   205   ar
   204   204   205   ar
   205   206   207    1
   206   207   210    1
   207   207   208    1
   208   208   209    2
   209   210   211    1
   210   211   213   ar
   211   211   212   ar
   212   212   214   ar
   213   213   215   ar
   214   214   216   ar
   215   215   216   ar
