@<TRIPOS>MOLECULE
./1bqo/protein.pdb
 218 221 0 0 0
SMALL
GASTEIGER

@<TRIPOS>ATOM
      1 N          10.1910   47.1220   49.1980 N.3     1  ASN1       -0.1225
      2 CA          9.2660   48.2350   49.0470 C.3     1  ASN1        0.1785
      3 C           7.8410   47.8140   49.4020 C.2     1  ASN1        0.2597
      4 O           7.6050   47.3820   50.5260 O.2     1  ASN1       -0.2718
      5 CB          9.3660   48.8090   47.6320 C.3     1  ASN1        0.1169
      6 CG         10.7340   49.3920   47.3500 C.2     1  ASN1        0.2627
      7 OD1        11.5860   48.7530   46.7370 O.2     1  ASN1       -0.2716
      8 ND2        10.9640   50.6030   47.8290 N.am    1  ASN1       -0.0877
      9 N           6.9160   47.8720   48.4440 N.am    2  VAL2       -0.1966
     10 CA          5.5240   47.4810   48.7180 C.3     2  VAL2        0.1727
     11 C           5.4480   46.0210   49.1620 C.2     2  VAL2        0.2616
     12 O           5.8590   45.1140   48.4340 O.2     2  VAL2       -0.2715
     13 CB          4.6090   47.7020   47.4770 C.3     2  VAL2        0.0290
     14 CG2         3.1770   47.2210   47.7420 C.3     2  VAL2        0.0023
     15 CG1         4.5990   49.1860   47.1030 C.3     2  VAL2        0.0023
     16 N           5.0160   45.8190   50.3990 N.am    3  LEU3       -0.1963
     17 CA          4.8730   44.4850   50.9810 C.3     3  LEU3        0.1728
     18 C           3.4640   43.9090   50.7760 C.2     3  LEU3        0.2616
     19 O           3.3010   42.7070   50.6130 O.2     3  LEU3       -0.2715
     20 CB          5.1770   44.5270   52.4860 C.3     3  LEU3        0.0311
     21 CG          6.4830   45.1900   52.9520 C.3     3  LEU3        0.0022
     22 CD2         6.5620   45.1440   54.4700 C.3     3  LEU3        0.0001
     23 CD1         7.6930   44.5250   52.3090 C.3     3  LEU3        0.0001
     24 N           2.4480   44.7700   50.8080 N.am    4  ALA4       -0.1963
     25 CA          1.0640   44.3310   50.6290 C.3     4  ALA4        0.1728
     26 C           0.1150   45.5000   50.3880 C.2     4  ALA4        0.2616
     27 O           0.4710   46.6470   50.6100 O.2     4  ALA4       -0.2715
     28 CB          0.6110   43.5530   51.8450 C.3     4  ALA4        0.0334
     29 N          -1.0630   45.2140   49.8500 N.am    5  HIS5       -0.1973
     30 CA         -2.0560   46.2630   49.6270 C.3     5  HIS5        0.1652
     31 C          -3.4950   45.7400   49.7130 C.2     5  HIS5        0.2291
     32 O          -3.8140   44.6400   49.2320 O.2     5  HIS5       -0.2864
     33 CB         -1.8100   47.0440   48.3170 C.3     5  HIS5        0.0731
     34 CG         -1.9570   46.2310   47.0690 C.2     5  HIS5        0.0652
     35 ND1        -1.3140   46.5630   45.8940 N.2     5  HIS5       -0.2310
     36 CD2        -2.6560   45.1010   46.8100 C.3     5  HIS5        0.1683
     37 CE1        -1.6080   45.6680   44.9650 C.2     5  HIS5        0.1939
     38 NE2        -2.4210   44.7680   45.4940 N.2     5  HIS5       -0.2440
     39 N           7.4910   35.9310   54.2500 N.3     1  TRP1       -0.1241
     40 CA          6.5300   36.0550   55.3420 C.3     1  TRP1        0.1602
     41 C           6.9540   35.1980   56.5090 C.2     1  TRP1        0.2264
     42 O           7.3840   34.0680   56.3310 O.2     1  TRP1       -0.2867
     43 CB          5.1240   35.6700   54.8740 C.3     1  TRP1        0.0513
     44 CG          4.6530   36.5840   53.8040 C.2     1  TRP1       -0.0140
     45 CD1         4.5190   36.3030   52.4850 C.2     1  TRP1        0.0907
     46 CD2         4.3320   37.9770   53.9580 C.3     1  TRP1        0.0819
     47 NE1         4.3450   37.4750   51.7820 N.2     1  TRP1       -0.2482
     48 CE2         4.1670   38.5040   52.6650 C.2     1  TRP1        0.0665
     49 CE3         4.2080   38.8310   55.0630 C.2     1  TRP1       -0.0164
     50 CZ2         3.8620   39.8450   52.4470 C.2     1  TRP1        0.0153
     51 CZ3         3.9100   40.1670   54.8460 C.2     1  TRP1       -0.0038
     52 CH2         3.7490   40.6630   53.5430 C.2     1  TRP1        0.0009
     53 N           9.2510   39.3740   57.0490 N.3     1  THR1       -0.1203
     54 CA          8.1420   40.2950   57.1020 C.3     1  THR1        0.1994
     55 C           7.0450   39.5830   57.8870 C.2     1  THR1        0.2617
     56 O           6.5400   38.5490   57.4660 O.2     1  THR1       -0.2717
     57 CB          7.6610   40.6310   55.7090 C.3     1  THR1        0.1784
     58 OG1         8.7770   41.0300   54.9140 O.3     1  THR1       -0.2211
     59 CG2         6.6600   41.7560   55.7590 C.3     1  THR1        0.0376
     60 N           6.7670   40.0640   59.0910 N.am    2  ASN2       -0.1974
     61 CA          5.7460   39.4450   59.9250 C.3     2  ASN2        0.1688
     62 C           4.3700   39.5470   59.3020 C.2     2  ASN2        0.2292
     63 O           3.8220   40.6430   59.1700 O.2     2  ASN2       -0.2864
     64 CB          5.7210   40.0600   61.3270 C.3     2  ASN2        0.1181
     65 CG          4.8940   39.2410   62.2910 C.2     2  ASN2        0.2629
     66 OD1         3.7560   39.5720   62.5900 O.2     2  ASN2       -0.2716
     67 ND2         5.4560   38.1490   62.7600 N.am    2  ASN2       -0.0877
     68 N           1.4040   38.6950   60.5230 N.3     1  PHE1       -0.1227
     69 CA          0.3980   39.2600   61.4230 C.3     1  PHE1        0.1736
     70 C           0.3960   40.7820   61.4340 C.2     1  PHE1        0.2595
     71 O          -0.6530   41.4160   61.3490 O.2     1  PHE1       -0.2718
     72 CB          0.6010   38.7790   62.8580 C.3     1  PHE1        0.0547
     73 CG         -0.1280   39.6120   63.8730 C.ar    1  PHE1       -0.0202
     74 CD1        -1.5180   39.5700   63.9650 C.ar    1  PHE1       -0.0042
     75 CD2         0.5720   40.4990   64.6940 C.ar    1  PHE1       -0.0042
     76 CE1        -2.2000   40.4010   64.8550 C.ar    1  PHE1       -0.0003
     77 CE2        -0.1020   41.3280   65.5820 C.ar    1  PHE1       -0.0003
     78 CZ         -1.4930   41.2760   65.6620 C.ar    1  PHE1       -0.0000
     79 N           1.5750   41.3600   61.5750 N.am    2  LEU2       -0.1966
     80 CA          1.7060   42.8030   61.6380 C.3     2  LEU2        0.1728
     81 C           1.1550   43.5240   60.4060 C.2     2  LEU2        0.2616
     82 O           0.3740   44.4750   60.5110 O.2     2  LEU2       -0.2715
     83 CB          3.1760   43.1500   61.8580 C.3     2  LEU2        0.0311
     84 CG          3.5400   44.4910   62.4770 C.3     2  LEU2        0.0022
     85 CD2         2.8570   44.6500   63.8400 C.3     2  LEU2        0.0001
     86 CD1         5.0540   44.5200   62.6300 C.3     2  LEU2        0.0001
     87 N           1.5290   43.0280   59.2360 N.am    3  VAL3       -0.1963
     88 CA          1.0860   43.6280   57.9860 C.3     3  VAL3        0.1727
     89 C          -0.3980   43.3770   57.7350 C.2     3  VAL3        0.2616
     90 O          -1.1260   44.2530   57.2650 O.2     3  VAL3       -0.2715
     91 CB          1.9010   43.0720   56.8110 C.3     3  VAL3        0.0290
     92 CG1         1.4970   43.7510   55.5130 C.3     3  VAL3        0.0023
     93 CG2         3.3700   43.2760   57.0890 C.3     3  VAL3        0.0023
     94 N          -0.8480   42.1740   58.0710 N.am    4  ALA4       -0.1977
     95 CA         -2.2470   41.8130   57.8850 C.3     4  ALA4        0.1597
     96 C          -3.1760   42.7090   58.7240 C.2     4  ALA4        0.2287
     97 O          -4.2340   43.1260   58.2510 O.2     4  ALA4       -0.2864
     98 CB         -2.4540   40.3500   58.2230 C.3     4  ALA4        0.0319
     99 N          -2.5920   45.7490   59.5320 N.3     1  HIS1       -0.1226
    100 CA         -2.5470   47.0330   58.8490 C.3     1  HIS1        0.1752
    101 C          -3.4610   46.9810   57.6060 C.2     1  HIS1        0.2595
    102 O          -4.2200   47.9110   57.3420 O.2     1  HIS1       -0.2718
    103 CB         -1.1040   47.3390   58.4390 C.3     1  HIS1        0.0759
    104 CG         -0.9330   48.6250   57.6960 C.ar    1  HIS1        0.0818
    105 ND1        -0.6100   49.8090   58.3170 N.ar    1  HIS1       -0.2268
    106 CD2        -1.0490   48.9140   56.3760 C.ar    1  HIS1        0.1154
    107 CE1        -0.5280   50.7730   57.4180 C.ar    1  HIS1        0.1986
    108 NE2        -0.7910   50.2570   56.2320 N.ar    1  HIS1       -0.2212
    109 N          -3.4080   45.8740   56.8680 N.am    2  GLU2       -0.1979
    110 CA         -4.2350   45.7160   55.6720 C.3     2  GLU2        0.1600
    111 C          -5.7310   45.6200   55.9660 C.2     2  GLU2        0.2287
    112 O          -6.5500   46.2810   55.3240 O.2     2  GLU2       -0.2864
    113 CB         -3.7830   44.5000   54.8640 C.3     2  GLU2        0.0356
    114 CG         -2.3720   44.6300   54.3440 C.3     2  GLU2        0.0439
    115 CD         -2.0970   45.9940   53.7210 C.2     2  GLU2        0.0504
    116 OE1        -2.8480   46.4350   52.8160 O.co2   2  GLU2       -0.5492
    117 OE2        -1.1260   46.6340   54.1570 O.co2   2  GLU2       -0.5492
    118 N          -7.2950   48.7140   56.3230 N.3     1  HIS1       -0.1241
    119 CA         -7.6990   49.2820   55.0420 C.3     1  HIS1        0.1621
    120 C          -9.0190   48.6670   54.5960 C.2     1  HIS1        0.2264
    121 O          -9.9200   49.3780   54.1770 O.2     1  HIS1       -0.2867
    122 CB         -6.6270   49.0310   53.9720 C.3     1  HIS1        0.0745
    123 CG         -5.3980   49.8620   54.1450 C.ar    1  HIS1        0.0817
    124 ND1        -5.4490   51.2320   54.2640 N.ar    1  HIS1       -0.2268
    125 CD2        -4.0850   49.5270   54.2070 C.ar    1  HIS1        0.1154
    126 CE1        -4.2260   51.7110   54.3930 C.ar    1  HIS1        0.1986
    127 NE2        -3.3770   50.6960   54.3590 N.ar    1  HIS1       -0.2212
    128 N          -3.9110   55.7550   55.7150 N.3     1  HIS1       -0.1241
    129 CA         -2.6800   55.9850   56.4570 C.3     1  HIS1        0.1618
    130 C          -2.7880   57.1360   57.4660 C.2     1  HIS1        0.2264
    131 O          -3.3390   58.2090   57.1810 O.2     1  HIS1       -0.2867
    132 CB         -1.5100   56.1860   55.4940 C.3     1  HIS1        0.0704
    133 CG         -1.1740   54.9610   54.6980 C.2     1  HIS1        0.0649
    134 ND1        -0.8050   55.0100   53.3690 N.2     1  HIS1       -0.2310
    135 CD2        -1.1410   53.6550   55.0480 C.3     1  HIS1        0.1683
    136 CE1        -0.5610   53.7850   52.9350 C.2     1  HIS1        0.1939
    137 NE2        -0.7590   52.9420   53.9330 N.2     1  HIS1       -0.2440
    138 N           1.0200   54.6020   65.5790 N.3     1  ALA1       -0.1231
    139 CA         -0.1870   53.9220   65.1200 C.3     1  ALA1        0.1694
    140 C           0.0550   52.8700   64.0470 C.2     1  ALA1        0.2592
    141 O           0.7380   53.1230   63.0660 O.2     1  ALA1       -0.2718
    142 CB         -1.1860   54.9380   64.6100 C.3     1  ALA1        0.0304
    143 N          -0.6500   51.7480   64.1690 N.am    2  LEU2       -0.1966
    144 CA         -0.5320   50.6390   63.2230 C.3     2  LEU2        0.1728
    145 C          -0.7700   51.1120   61.7960 C.2     2  LEU2        0.2616
    146 O          -0.1620   50.5930   60.8550 O.2     2  LEU2       -0.2715
    147 CB         -1.5520   49.5460   63.5550 C.3     2  LEU2        0.0311
    148 CG         -1.6280   48.3800   62.5700 C.3     2  LEU2        0.0022
    149 CD1        -0.3270   47.6300   62.5570 C.3     2  LEU2        0.0001
    150 CD2        -2.7630   47.4600   62.9550 C.3     2  LEU2        0.0001
    151 N          -1.6790   52.0710   61.6310 N.am    3  MET3       -0.1963
    152 CA         -1.9910   52.5900   60.3050 C.3     3  MET3        0.1736
    153 C          -1.0020   53.5940   59.7070 C.2     3  MET3        0.2616
    154 O          -1.2640   54.1910   58.6640 O.2     3  MET3       -0.2715
    155 CB         -3.4230   53.1130   60.2490 C.3     3  MET3        0.0427
    156 CG         -4.4640   52.0210   60.5050 C.3     3  MET3        0.0599
    157 SD         -4.1540   50.5000   59.5610 S.3     3  MET3       -0.1393
    158 CE         -4.5340   51.0370   57.8850 C.3     3  MET3        0.0692
    159 N           0.1470   53.7500   60.3530 N.am    4  TYR4       -0.1960
    160 CA          1.2040   54.6210   59.8530 C.3     4  TYR4        0.1756
    161 C           1.9440   53.6960   58.8580 C.2     4  TYR4        0.2461
    162 O           2.2950   52.5680   59.2000 O.2     4  TYR4       -0.2730
    163 CB          2.0960   55.0370   61.0320 C.3     4  TYR4        0.0574
    164 CG          3.2040   55.9980   60.7070 C.ar    4  TYR4       -0.0198
    165 CD1         2.9270   57.2890   60.2730 C.ar    4  TYR4       -0.0009
    166 CD2         4.5310   55.6150   60.8410 C.ar    4  TYR4       -0.0009
    167 CE1         3.9530   58.1850   59.9720 C.ar    4  TYR4        0.0417
    168 CE2         5.5650   56.5010   60.5440 C.ar    4  TYR4        0.0417
    169 CZ          5.2680   57.7790   60.1110 C.ar    4  TYR4        0.1957
    170 OH          6.2970   58.6320   59.8060 O.3     4  TYR4       -0.2866
    171 N           2.1760   54.1450   57.6120 N.am    5  PRO5       -0.2716
    172 CA          2.8510   53.2980   56.6170 C.3     5  PRO5        0.1536
    173 C           4.3350   52.9760   56.7860 C.2     5  PRO5        0.2598
    174 O           5.0870   52.9900   55.8090 O.2     5  PRO5       -0.2715
    175 CB          2.5910   54.0460   55.3120 C.3     5  PRO5        0.0310
    176 CG          2.6780   55.4570   55.7450 C.3     5  PRO5        0.0237
    177 CD          1.8560   55.4630   57.0290 C.3     5  PRO5        0.0939
    178 N           4.7540   52.6130   57.9930 N.am    6  LEU6       -0.1964
    179 CA          6.1510   52.2920   58.1960 C.3     6  LEU6        0.1728
    180 C           6.3060   50.9060   58.8140 C.2     6  LEU6        0.2616
    181 O           5.8230   50.6620   59.9140 O.2     6  LEU6       -0.2715
    182 CB          6.7920   53.3540   59.0920 C.3     6  LEU6        0.0311
    183 CG          8.2600   53.7270   58.8790 C.3     6  LEU6        0.0022
    184 CD2         9.1570   52.4950   59.0400 C.3     6  LEU6        0.0001
    185 CD1         8.4260   54.3590   57.4920 C.3     6  LEU6        0.0001
    186 N           6.9230   49.9680   58.1020 N.am    7  TYR7       -0.1960
    187 CA          7.1020   48.6520   58.7070 C.3     7  TYR7        0.1771
    188 C           8.2760   48.7920   59.6690 C.2     7  TYR7        0.2619
    189 O           9.4230   48.9380   59.2490 O.2     7  TYR7       -0.2715
    190 CB          7.3620   47.5580   57.6660 C.3     7  TYR7        0.0574
    191 CG          7.5200   46.1870   58.2780 C.ar    7  TYR7       -0.0198
    192 CD2         6.4110   45.4070   58.6010 C.ar    7  TYR7       -0.0009
    193 CD1         8.7800   45.6840   58.5680 C.ar    7  TYR7       -0.0009
    194 CE2         6.5640   44.1430   59.2070 C.ar    7  TYR7        0.0417
    195 CE1         8.9430   44.4340   59.1670 C.ar    7  TYR7        0.0417
    196 CZ          7.8390   43.6740   59.4840 C.ar    7  TYR7        0.1957
    197 OH          8.0470   42.4650   60.0880 O.3     7  TYR7       -0.2866
    198 N           7.9930   48.7390   60.9590 N.am    8  HIS8       -0.1973
    199 CA          9.0380   48.9310   61.9560 C.3     8  HIS8        0.1656
    200 C          10.1100   47.8810   62.1960 C.2     8  HIS8        0.2291
    201 O           9.8500   46.6760   62.2520 O.2     8  HIS8       -0.2864
    202 CB          8.4330   49.3550   63.2900 C.3     8  HIS8        0.0771
    203 CG          7.8610   50.7320   63.2600 C.ar    8  HIS8        0.0820
    204 ND1         8.6600   51.8580   63.2790 N.ar    8  HIS8       -0.2267
    205 CD2         6.5900   51.1710   63.1490 C.ar    8  HIS8        0.1154
    206 CE1         7.8940   52.9320   63.1780 C.ar    8  HIS8        0.1986
    207 NE2         6.6360   52.5430   63.0950 N.ar    8  HIS8       -0.2212
    208 N           1.9130   43.3180   71.7080 N.3     1  PHE1       -0.1241
    209 CA          1.2540   44.1730   70.7340 C.3     1  PHE1        0.1605
    210 C          -0.0290   44.8250   71.2400 C.2     1  PHE1        0.2264
    211 O          -0.8090   44.2150   71.9710 O.2     1  PHE1       -0.2867
    212 CB          0.9520   43.3840   69.4580 C.3     1  PHE1        0.0534
    213 CG          0.3080   44.2050   68.3850 C.ar    1  PHE1       -0.0203
    214 CD1         1.0760   45.0140   67.5590 C.ar    1  PHE1       -0.0042
    215 CD2        -1.0760   44.1950   68.2150 C.ar    1  PHE1       -0.0042
    216 CE1         0.4770   45.8080   66.5840 C.ar    1  PHE1       -0.0003
    217 CE2        -1.6790   44.9890   67.2380 C.ar    1  PHE1       -0.0003
    218 CZ         -0.8970   45.7890   66.4230 C.ar    1  PHE1       -0.0000
@<TRIPOS>UNITY_ATOM_ATTR
116 1
charge -1
@<TRIPOS>BOND
     1     1     2    1
     2     2     5    1
     3     2     3    1
     4     3     9   am
     5     3     4    2
     6     5     6    1
     7     6     7    2
     8     6     8   am
     9     9    10    1
    10    10    13    1
    11    10    11    1
    12    11    12    2
    13    11    16   am
    14    13    15    1
    15    13    14    1
    16    16    17    1
    17    17    18    1
    18    17    20    1
    19    18    19    2
    20    18    24   am
    21    20    21    1
    22    21    23    1
    23    21    22    1
    24    24    25    1
    25    25    26    1
    26    25    28    1
    27    26    29   am
    28    26    27    2
    29    29    30    1
    30    30    33    1
    31    30    31    1
    32    31    32    2
    33    33    34    1
    34    34    35    2
    35    34    36    1
    36    35    37    1
    37    36    38    1
    38    37    38    2
    39    39    40    1
    40    40    43    1
    41    40    41    1
    42    41    42    2
    43    43    44    1
    44    44    45    2
    45    44    46    1
    46    45    47    1
    47    46    48    1
    48    46    49    1
    49    47    48    2
    50    48    50    1
    51    49    51    2
    52    50    52    2
    53    51    52    1
    54    53    54    1
    55    54    57    1
    56    54    55    1
    57    55    56    2
    58    55    60   am
    59    57    58    1
    60    57    59    1
    61    60    61    1
    62    61    62    1
    63    61    64    1
    64    62    63    2
    65    64    65    1
    66    65    66    2
    67    65    67   am
    68    68    69    1
    69    69    70    1
    70    69    72    1
    71    70    71    2
    72    70    79   am
    73    72    73    1
    74    73    74   ar
    75    73    75   ar
    76    74    76   ar
    77    75    77   ar
    78    76    78   ar
    79    77    78   ar
    80    79    80    1
    81    80    81    1
    82    80    83    1
    83    81    87   am
    84    81    82    2
    85    83    84    1
    86    84    86    1
    87    84    85    1
    88    87    88    1
    89    88    91    1
    90    88    89    1
    91    89    90    2
    92    89    94   am
    93    91    92    1
    94    91    93    1
    95    94    95    1
    96    95    98    1
    97    95    96    1
    98    96    97    2
    99    99   100    1
   100   100   101    1
   101   100   103    1
   102   101   109   am
   103   101   102    2
   104   103   104    1
   105   104   106   ar
   106   104   105   ar
   107   105   107   ar
   108   106   108   ar
   109   107   108   ar
   110   109   110    1
   111   110   113    1
   112   110   111    1
   113   111   112    2
   114   113   114    1
   115   114   115    1
   116   115   116   ar
   117   115   117   ar
   118   118   119    1
   119   119   122    1
   120   119   120    1
   121   120   121    2
   122   122   123    1
   123   123   125   ar
   124   123   124   ar
   125   124   126   ar
   126   125   127   ar
   127   126   127   ar
   128   128   129    1
   129   129   132    1
   130   129   130    1
   131   130   131    2
   132   132   133    1
   133   133   134    2
   134   133   135    1
   135   134   136    1
   136   135   137    1
   137   136   137    2
   138   138   139    1
   139   139   140    1
   140   139   142    1
   141   140   141    2
   142   140   143   am
   143   143   144    1
   144   144   145    1
   145   144   147    1
   146   145   146    2
   147   145   151   am
   148   147   148    1
   149   148   149    1
   150   148   150    1
   151   151   152    1
   152   152   153    1
   153   152   155    1
   154   153   154    2
   155   153   159   am
   156   155   156    1
   157   156   157    1
   158   157   158    1
   159   159   160    1
   160   160   161    1
   161   160   163    1
   162   161   171   am
   163   161   162    2
   164   163   164    1
   165   164   165   ar
   166   164   166   ar
   167   165   167   ar
   168   166   168   ar
   169   167   169   ar
   170   168   169   ar
   171   169   170    1
   172   171   172    1
   173   171   177    1
   174   172   175    1
   175   172   173    1
   176   173   174    2
   177   173   178   am
   178   175   176    1
   179   176   177    1
   180   178   179    1
   181   179   180    1
   182   179   182    1
   183   180   186   am
   184   180   181    2
   185   182   183    1
   186   183   185    1
   187   183   184    1
   188   186   187    1
   189   187   190    1
   190   187   188    1
   191   188   189    2
   192   188   198   am
   193   190   191    1
   194   191   193   ar
   195   191   192   ar
   196   192   194   ar
   197   193   195   ar
   198   194   196   ar
   199   195   196   ar
   200   196   197    1
   201   198   199    1
   202   199   200    1
   203   199   202    1
   204   200   201    2
   205   202   203    1
   206   203   205   ar
   207   203   204   ar
   208   204   206   ar
   209   205   207   ar
   210   206   207   ar
   211   208   209    1
   212   209   212    1
   213   209   210    1
   214   210   211    2
   215   212   213    1
   216   213   214   ar
   217   213   215   ar
   218   214   216   ar
   219   215   217   ar
   220   216   218   ar
   221   217   218   ar
