@<TRIPOS>MOLECULE
./1tky/protein.pdb
 246 244 0 0 0
SMALL
GASTEIGER

@<TRIPOS>ATOM
      1 N          10.0590    1.0320   48.0520 N.3     1  HIS1       -0.1241
      2 CA         11.0340    1.8960   47.4140 C.3     1  HIS1        0.1621
      3 C          12.1490    1.0580   46.7860 C.2     1  HIS1        0.2264
      4 O          12.6000    1.3390   45.6660 O.2     1  HIS1       -0.2867
      5 CB         11.6070    2.8810   48.4330 C.3     1  HIS1        0.0745
      6 CG         11.9440    4.2180   47.8510 C.ar    1  HIS1        0.0817
      7 ND1        12.3070    5.2940   48.6300 N.ar    1  HIS1       -0.2268
      8 CD2        11.9640    4.6570   46.5690 C.ar    1  HIS1        0.1154
      9 CE1        12.5320    6.3410   47.8560 C.ar    1  HIS1        0.1986
     10 NE2        12.3310    5.9820   46.6000 N.ar    1  HIS1       -0.2212
     11 N          11.4200   -0.3120   43.4620 N.3     1  ALA1       -0.1231
     12 CA         11.6030    0.6000   42.3410 C.3     1  ALA1        0.1694
     13 C          13.0410    0.4410   41.8470 C.2     1  ALA1        0.2592
     14 O          13.2790    0.4100   40.6370 O.2     1  ALA1       -0.2718
     15 CB         11.3300    2.0470   42.7620 C.3     1  ALA1        0.0304
     16 N          14.0040    0.3310   42.7650 N.am    2  HIS2       -0.1976
     17 CA         15.3940    0.1380   42.3500 C.3     2  HIS2        0.1656
     18 C          15.5230   -1.1860   41.6080 C.2     2  HIS2        0.2291
     19 O          16.2560   -1.2800   40.6260 O.2     2  HIS2       -0.2864
     20 CB         16.3470    0.1210   43.5500 C.3     2  HIS2        0.0771
     21 CG         16.6170    1.4710   44.1260 C.ar    2  HIS2        0.0820
     22 ND1        17.5900    1.6860   45.0780 N.ar    2  HIS2       -0.2267
     23 CD2        16.0360    2.6720   43.8970 C.ar    2  HIS2        0.1154
     24 CE1        17.5970    2.9650   45.4130 C.ar    2  HIS2        0.1986
     25 NE2        16.6630    3.5850   44.7130 N.ar    2  HIS2       -0.2212
     26 N          16.8230    6.2250   33.3800 N.3     1  MET1       -0.1230
     27 CA         15.9590    6.2520   34.5570 C.3     1  MET1        0.1702
     28 C          15.6950    7.6720   35.0380 C.2     1  MET1        0.2592
     29 O          16.6310    8.4550   35.2040 O.2     1  MET1       -0.2718
     30 CB         16.6270    5.4730   35.6890 C.3     1  MET1        0.0401
     31 CG         17.1640    4.0920   35.2820 C.3     1  MET1        0.0596
     32 SD         15.9140    2.9870   34.5950 S.3     1  MET1       -0.1393
     33 CE         14.7470    2.8840   35.9880 C.3     1  MET1        0.0692
     34 N          14.4290    8.0060   35.2730 N.am    2  ALA2       -0.1966
     35 CA         14.1040    9.3400   35.7610 C.3     2  ALA2        0.1728
     36 C          13.8070    9.2740   37.2650 C.2     2  ALA2        0.2616
     37 O          14.7250    9.1620   38.0620 O.2     2  ALA2       -0.2715
     38 CB         12.9170    9.9290   34.9700 C.3     2  ALA2        0.0334
     39 N          12.5400    9.3230   37.6570 N.am    3  ILE3       -0.1963
     40 CA         12.1910    9.2830   39.0750 C.3     3  ILE3        0.1727
     41 C          11.3300    8.0630   39.3770 C.2     3  ILE3        0.2617
     42 O          10.4430    7.7260   38.5910 O.2     3  ILE3       -0.2715
     43 CB         11.4550   10.5820   39.4720 C.3     3  ILE3        0.0290
     44 CG1        12.3950   11.7740   39.2780 C.3     3  ILE3        0.0022
     45 CG2        10.9990   10.5210   40.9190 C.3     3  ILE3        0.0023
     46 CD1        11.7190   13.1160   39.4500 C.3     3  ILE3        0.0001
     47 N          11.6100    7.3990   40.5010 N.am    4  GLY4       -0.1941
     48 CA         10.8680    6.2040   40.8880 C.3     4  GLY4        0.1998
     49 C          10.5060    6.2600   42.3630 C.2     4  GLY4        0.2481
     50 O          11.2010    5.7030   43.2160 O.2     4  GLY4       -0.2729
     51 N           9.3910    6.9110   42.6910 N.am    5  PRO5       -0.2715
     52 CA          8.9420    7.0470   44.0750 C.3     5  PRO5        0.1536
     53 C           7.9690    5.9950   44.5650 C.2     5  PRO5        0.2598
     54 O           7.4150    5.2190   43.7870 O.2     5  PRO5       -0.2715
     55 CB          8.2930    8.4170   44.0670 C.3     5  PRO5        0.0310
     56 CG          7.5820    8.4170   42.7280 C.3     5  PRO5        0.0237
     57 CD          8.5320    7.6850   41.7750 C.3     5  PRO5        0.0939
     58 N           7.7540    6.0000   45.8750 N.am    6  VAL6       -0.1978
     59 CA          6.7910    5.1090   46.5070 C.3     6  VAL6        0.1596
     60 C           5.4670    5.8710   46.4810 C.2     6  VAL6        0.2287
     61 O           5.4470    7.0940   46.6200 O.2     6  VAL6       -0.2864
     62 CB          7.1710    4.8220   47.9770 C.3     6  VAL6        0.0276
     63 CG2         6.0200    4.1410   48.7020 C.3     6  VAL6        0.0022
     64 CG1         8.3930    3.9520   48.0280 C.3     6  VAL6        0.0022
     65 N           8.0750    3.9060   38.3060 N.3     1  TYR1       -0.1241
     66 CA          9.3420    4.4340   37.8390 C.3     1  TYR1        0.1605
     67 C           9.0790    4.9880   36.4480 C.2     1  TYR1        0.2264
     68 O           8.4920    4.3040   35.6020 O.2     1  TYR1       -0.2867
     69 CB         10.4420    3.3560   37.7680 C.3     1  TYR1        0.0534
     70 CG         11.8210    3.8670   38.1700 C.ar    1  TYR1       -0.0201
     71 CD1        12.3250    5.0720   37.6720 C.ar    1  TYR1       -0.0009
     72 CD2        12.6040    3.1570   39.0840 C.ar    1  TYR1       -0.0009
     73 CE1        13.5670    5.5600   38.0770 C.ar    1  TYR1        0.0417
     74 CE2        13.8540    3.6420   39.4990 C.ar    1  TYR1        0.0417
     75 CZ         14.3250    4.8450   38.9940 C.ar    1  TYR1        0.1957
     76 OH         15.5320    5.3530   39.4250 O.3     1  TYR1       -0.2866
     77 N          26.6360    9.0790   37.4680 N.3     1  PHE1       -0.1241
     78 CA         25.5630    9.0090   36.4970 C.3     1  PHE1        0.1605
     79 C          25.9540    9.4940   35.1130 C.2     1  PHE1        0.2264
     80 O          25.4420    8.9860   34.1260 O.2     1  PHE1       -0.2867
     81 CB         24.3290    9.7210   37.0460 C.3     1  PHE1        0.0534
     82 CG         23.7020    8.9730   38.1810 C.ar    1  PHE1       -0.0203
     83 CD1        23.1140    7.7300   37.9530 C.ar    1  PHE1       -0.0042
     84 CD2        23.7910    9.4430   39.4850 C.ar    1  PHE1       -0.0042
     85 CE1        22.6310    6.9600   39.0060 C.ar    1  PHE1       -0.0003
     86 CE2        23.3110    8.6800   40.5510 C.ar    1  PHE1       -0.0003
     87 CZ         22.7300    7.4310   40.3090 C.ar    1  PHE1       -0.0000
     88 N          18.7970   12.0610   33.0840 N.3     1  TYR1       -0.1227
     89 CA         17.7780   12.5830   33.9820 C.3     1  TYR1        0.1736
     90 C          18.3160   12.6540   35.4000 C.2     1  TYR1        0.2595
     91 O          18.0350   13.6160   36.1160 O.2     1  TYR1       -0.2718
     92 CB         16.5070   11.7340   33.9130 C.3     1  TYR1        0.0548
     93 CG         15.8670   11.7600   32.5460 C.ar    1  TYR1       -0.0200
     94 CD1        16.2660   10.8640   31.5560 C.ar    1  TYR1       -0.0009
     95 CD2        14.8890   12.7070   32.2240 C.ar    1  TYR1       -0.0009
     96 CE1        15.7120   10.9080   30.2760 C.ar    1  TYR1        0.0417
     97 CE2        14.3290   12.7570   30.9490 C.ar    1  TYR1        0.0417
     98 CZ         14.7450   11.8550   29.9810 C.ar    1  TYR1        0.1957
     99 OH         14.2020   11.8940   28.7180 O.3     1  TYR1       -0.2866
    100 N          19.1130   11.6650   35.8000 N.am    2  LYS2       -0.1980
    101 CA         19.7110   11.6810   37.1360 C.3     2  LYS2        0.1596
    102 C          20.6800   12.8650   37.2210 C.2     2  LYS2        0.2287
    103 O          20.7510   13.5490   38.2400 O.2     2  LYS2       -0.2864
    104 CB         20.4630   10.3730   37.4310 C.3     2  LYS2        0.0298
    105 CG         19.5850    9.1180   37.4670 C.3     2  LYS2        0.0038
    106 CD         18.5250    9.2020   38.5610 C.3     2  LYS2        0.0206
    107 CE         17.7950    7.8650   38.7150 C.3     2  LYS2        0.1093
    108 NZ         16.6510    7.9930   39.6690 N.3     2  LYS2       -0.1314
    109 N          20.3930   15.6260   35.5780 N.3     1  SER1       -0.1202
    110 CA         19.5570   16.8210   35.6210 C.3     1  SER1        0.2020
    111 C          19.0140   17.0510   37.0310 C.2     1  SER1        0.2619
    112 O          18.8980   18.1960   37.4860 O.2     1  SER1       -0.2717
    113 CB         18.4060   16.6880   34.6360 C.3     1  SER1        0.2103
    114 OG         17.6290   17.8750   34.6160 O.3     1  SER1       -0.2182
    115 N          18.6670   15.9730   37.7270 N.am    2  ILE2       -0.1965
    116 CA         18.1680   16.1100   39.0890 C.3     2  ILE2        0.1727
    117 C          19.2910   16.7070   39.9380 C.2     2  ILE2        0.2616
    118 O          19.0520   17.5810   40.7710 O.2     2  ILE2       -0.2715
    119 CB         17.7050   14.7390   39.6400 C.3     2  ILE2        0.0290
    120 CG1        16.4530   14.3030   38.8870 C.3     2  ILE2        0.0022
    121 CG2        17.4330   14.8270   41.1490 C.3     2  ILE2        0.0023
    122 CD1        16.0290   12.8710   39.1650 C.3     2  ILE2        0.0001
    123 N          20.5220   16.2650   39.7150 N.am    3  LEU3       -0.1977
    124 CA         21.6500   16.8150   40.4670 C.3     3  LEU3        0.1596
    125 C          21.9000   18.2810   40.0690 C.2     3  LEU3        0.2287
    126 O          22.0730   19.1510   40.9290 O.2     3  LEU3       -0.2864
    127 CB         22.9120   15.9640   40.2420 C.3     3  LEU3        0.0297
    128 CG         22.9500   14.6590   41.0550 C.3     3  LEU3        0.0022
    129 CD1        23.8660   13.6520   40.4130 C.3     3  LEU3        0.0001
    130 CD2        23.4180   14.9560   42.4750 C.3     3  LEU3        0.0001
    131 N          18.1120   20.1450   41.0490 N.3     1  ASN1       -0.1225
    132 CA         17.3570   19.9140   42.2800 C.3     1  ASN1        0.1785
    133 C          18.0770   19.5190   43.5570 C.2     1  ASN1        0.2597
    134 O          17.4390   19.3960   44.6060 O.2     1  ASN1       -0.2718
    135 CB         16.2730   18.8780   41.9850 C.3     1  ASN1        0.1169
    136 CG         15.5110   19.1900   40.7220 C.2     1  ASN1        0.2627
    137 OD1        15.4550   18.3760   39.8030 O.2     1  ASN1       -0.2716
    138 ND2        14.9240   20.3800   40.6610 N.am    1  ASN1       -0.0877
    139 N          19.3840   19.3100   43.4970 N.am    2  ILE2       -0.1980
    140 CA         20.1290   18.9290   44.6900 C.3     2  ILE2        0.1595
    141 C          21.2470   19.9230   44.9630 C.2     2  ILE2        0.2287
    142 O          22.0560   20.2140   44.0880 O.2     2  ILE2       -0.2864
    143 CB         20.7250   17.5110   44.5430 C.3     2  ILE2        0.0276
    144 CG1        19.5940   16.5000   44.3240 C.3     2  ILE2        0.0022
    145 CG2        21.5370   17.1550   45.7860 C.3     2  ILE2        0.0022
    146 CD1        20.0680   15.0710   44.0990 C.3     2  ILE2        0.0001
    147 N          25.0260   18.9500   49.4430 N.3     1  ASP1       -0.1227
    148 CA         24.2950   17.7670   49.8860 C.3     1  ASP1        0.1748
    149 C          25.1600   16.5390   49.6100 C.2     1  ASP1        0.2596
    150 O          26.0200   16.5650   48.7330 O.2     1  ASP1       -0.2718
    151 CB         22.9860   17.6470   49.1080 C.3     1  ASP1        0.0701
    152 CG         21.9450   16.8360   49.8430 C.2     1  ASP1        0.0523
    153 OD2        22.3210   15.8430   50.5040 O.co2   1  ASP1       -0.5491
    154 OD1        20.7490   17.1890   49.7530 O.co2   1  ASP1       -0.5491
    155 N          24.9390   15.4670   50.3660 N.am    2  LYS2       -0.1966
    156 CA         25.6950   14.2310   50.1800 C.3     2  LYS2        0.1713
    157 C          24.7000   13.1540   49.7580 C.2     2  LYS2        0.2458
    158 O          24.0660   12.5150   50.5980 O.2     2  LYS2       -0.2730
    159 CB         26.3840   13.8240   51.4880 C.3     2  LYS2        0.0311
    160 CG         27.3170   14.8930   52.0520 C.3     2  LYS2        0.0038
    161 CD         28.4230   15.2280   51.0590 C.3     2  LYS2        0.0206
    162 CE         29.3080   16.3670   51.5500 C.3     2  LYS2        0.1093
    163 NZ         30.3080   16.7750   50.5140 N.3     2  LYS2       -0.1314
    164 N          24.5390   12.9460   48.4430 N.am    3  PRO3       -0.2716
    165 CA         23.5900   11.9290   47.9920 C.3     3  PRO3        0.1536
    166 C          23.9840   10.5120   48.3720 C.2     3  PRO3        0.2599
    167 O          25.1660   10.1840   48.4780 O.2     3  PRO3       -0.2715
    168 CB         23.5840   12.1040   46.4720 C.3     3  PRO3        0.0310
    169 CG         23.9990   13.5220   46.2720 C.3     3  PRO3        0.0237
    170 CD         25.0890   13.6880   47.2960 C.3     3  PRO3        0.0939
    171 N          22.9740    9.6750   48.5750 N.am    4  GLY4       -0.1955
    172 CA         23.2440    8.2900   48.8730 C.3     4  GLY4        0.1869
    173 C          23.1450    7.4980   47.5770 C.2     4  GLY4        0.2309
    174 O          22.1730    7.6300   46.8220 O.2     4  GLY4       -0.2863
    175 N          21.5340    3.4530   41.8370 N.3     1  ASP1       -0.1227
    176 CA         20.4840    4.4590   41.8920 C.3     1  ASP1        0.1748
    177 C          20.8780    5.4570   42.9880 C.2     1  ASP1        0.2596
    178 O          21.8750    5.2640   43.6900 O.2     1  ASP1       -0.2718
    179 CB         19.1130    3.8120   42.1640 C.3     1  ASP1        0.0701
    180 CG         17.9660    4.5520   41.4740 C.2     1  ASP1        0.0523
    181 OD2        17.9570    5.8010   41.5070 O.co2   1  ASP1       -0.5491
    182 OD1        17.0650    3.8830   40.9110 O.co2   1  ASP1       -0.5491
    183 N          20.1030    6.5240   43.1150 N.am    2  MET2       -0.1965
    184 CA         20.3980    7.5840   44.0720 C.3     2  MET2        0.1736
    185 C          19.1610    7.8930   44.8890 C.2     2  MET2        0.2617
    186 O          18.0640    8.0240   44.3470 O.2     2  MET2       -0.2715
    187 CB         20.8610    8.8190   43.3010 C.3     2  MET2        0.0427
    188 CG         21.0740   10.0700   44.1350 C.3     2  MET2        0.0599
    189 SD         21.7660   11.4130   43.1200 S.3     2  MET2       -0.1393
    190 CE         20.3710   11.8090   42.0680 C.3     2  MET2        0.0692
    191 N          19.3300    8.0370   46.1990 N.am    3  CYS3       -0.1954
    192 CA         18.1680    8.2660   47.0310 C.3     3  CYS3        0.1843
    193 C          18.5360    8.7340   48.4280 C.2     3  CYS3        0.2625
    194 O          19.6890    8.6490   48.8400 O.2     3  CYS3       -0.2714
    195 CB         17.3980    6.9450   47.1400 C.3     3  CYS3        0.0997
    196 SG         15.7140    7.0530   47.7610 S.3     3  CYS3       -0.0797
    197 N          17.5370    9.2440   49.1380 N.am    4  ARG4       -0.1963
    198 CA         17.7280    9.6500   50.5240 C.3     4  ARG4        0.1729
    199 C          17.5520    8.3600   51.3280 C.2     4  ARG4        0.2616
    200 O          18.0860    8.2200   52.4290 O.2     4  ARG4       -0.2715
    201 CB         16.6680   10.6720   50.9470 C.3     4  ARG4        0.0348
    202 CG         16.6410   10.9550   52.4530 C.3     4  ARG4        0.0492
    203 CD         15.3300   10.4860   53.0720 C.3     4  ARG4        0.2205
    204 NE         15.2690   10.7130   54.5160 N.pl3   4  ARG4       -0.0865
    205 CZ         15.8900    9.9660   55.4250 C.cat   4  ARG4        0.5346
    206 NH1        16.6310    8.9290   55.0490 N.pl3   4  ARG4        0.1354
    207 NH2        15.7650   10.2490   56.7170 N.pl3   4  ARG4        0.1354
    208 N          16.7950    7.4220   50.7640 N.am    5  GLY5       -0.1955
    209 CA         16.5620    6.1560   51.4320 C.3     5  GLY5        0.1869
    210 C          15.6440    6.2810   52.6360 C.2     5  GLY5        0.2309
    211 O          14.9090    7.2580   52.7780 O.2     5  GLY5       -0.2863
    212 N          16.9050    2.1160   52.1720 N.3     1  HIS1       -0.1241
    213 CA         16.5890    1.0140   51.2760 C.3     1  HIS1        0.1618
    214 C          16.8670   -0.2800   52.0230 C.2     1  HIS1        0.2264
    215 O          17.5080   -0.2740   53.0880 O.2     1  HIS1       -0.2867
    216 CB         17.3990    1.1070   49.9910 C.3     1  HIS1        0.0704
    217 CG         16.7880    2.0460   49.0080 C.2     1  HIS1        0.0649
    218 ND1        15.6920    1.6940   48.2460 N.2     1  HIS1       -0.2310
    219 CD2        16.9770    3.3710   48.8100 C.3     1  HIS1        0.1683
    220 CE1        15.2280    2.7670   47.6320 C.2     1  HIS1        0.1939
    221 NE2        15.9870    3.7970   47.9590 N.2     1  HIS1       -0.2440
    222 N           8.2820   14.5870   31.3260 N.3     1  TRP1       -0.1227
    223 CA          9.3860   14.8550   32.2450 C.3     1  TRP1        0.1734
    224 C           9.1730   16.2460   32.8560 C.2     1  TRP1        0.2595
    225 O           8.9690   17.2280   32.1310 O.2     1  TRP1       -0.2718
    226 CB         10.7150   14.7900   31.4760 C.3     1  TRP1        0.0527
    227 CG         11.9260   15.2530   32.2440 C.2     1  TRP1       -0.0139
    228 CD1        12.8410   16.1830   31.8390 C.2     1  TRP1        0.0907
    229 CD2        12.3570   14.8050   33.5380 C.3     1  TRP1        0.0819
    230 NE1        13.8120   16.3450   32.8000 N.2     1  TRP1       -0.2482
    231 CE2        13.5400   15.5110   33.8510 C.2     1  TRP1        0.0665
    232 CE3        11.8590   13.8760   34.4630 C.2     1  TRP1       -0.0164
    233 CZ2        14.2320   15.3180   35.0520 C.2     1  TRP1        0.0153
    234 CZ3        12.5500   13.6860   35.6600 C.2     1  TRP1       -0.0038
    235 CH2        13.7220   14.4040   35.9400 C.2     1  TRP1        0.0009
    236 N           9.2060   16.3080   34.1860 N.am    2  ARG2       -0.1980
    237 CA          8.9970   17.5430   34.9430 C.3     2  ARG2        0.1597
    238 C           7.6170   18.1620   34.6880 C.2     2  ARG2        0.2287
    239 O           7.3930   19.3440   34.9730 O.2     2  ARG2       -0.2864
    240 CB         10.1070   18.5630   34.6410 C.3     2  ARG2        0.0334
    241 CG         11.4930   18.1330   35.1420 C.3     2  ARG2        0.0492
    242 CD         12.4800   19.2890   35.0970 C.3     2  ARG2        0.2205
    243 NE         13.8590   18.8960   35.3990 N.pl3   2  ARG2       -0.0865
    244 CZ         14.3140   18.5640   36.6050 C.cat   2  ARG2        0.5346
    245 NH2        13.5080   18.5650   37.6590 N.pl3   2  ARG2        0.1354
    246 NH1        15.5940   18.2490   36.7630 N.pl3   2  ARG2        0.1354
@<TRIPOS>UNITY_ATOM_ATTR
153 1
charge -1
181 1
charge -1
@<TRIPOS>BOND
     1     1     2    1
     2     2     3    1
     3     2     5    1
     4     3     4    2
     5     5     6    1
     6     6     8   ar
     7     6     7   ar
     8     7     9   ar
     9     8    10   ar
    10     9    10   ar
    11    11    12    1
    12    12    13    1
    13    12    15    1
    14    13    14    2
    15    13    16   am
    16    16    17    1
    17    17    18    1
    18    17    20    1
    19    18    19    2
    20    20    21    1
    21    21    23   ar
    22    21    22   ar
    23    22    24   ar
    24    23    25   ar
    25    24    25   ar
    26    26    27    1
    27    27    28    1
    28    27    30    1
    29    28    29    2
    30    28    34   am
    31    30    31    1
    32    31    32    1
    33    32    33    1
    34    34    35    1
    35    35    38    1
    36    35    36    1
    37    36    39   am
    38    36    37    2
    39    39    40    1
    40    40    41    1
    41    40    43    1
    42    41    42    2
    43    41    47   am
    44    43    44    1
    45    43    45    1
    46    44    46    1
    47    47    48    1
    48    48    49    1
    49    49    51   am
    50    49    50    2
    51    51    57    1
    52    51    52    1
    53    52    55    1
    54    52    53    1
    55    53    54    2
    56    53    58   am
    57    55    56    1
    58    56    57    1
    59    58    59    1
    60    59    60    1
    61    59    62    1
    62    60    61    2
    63    62    64    1
    64    62    63    1
    65    65    66    1
    66    66    67    1
    67    66    69    1
    68    67    68    2
    69    69    70    1
    70    70    71   ar
    71    70    72   ar
    72    71    73   ar
    73    72    74   ar
    74    73    75   ar
    75    74    75   ar
    76    75    76    1
    77    77    78    1
    78    78    79    1
    79    78    81    1
    80    79    80    2
    81    81    82    1
    82    82    83   ar
    83    82    84   ar
    84    83    85   ar
    85    84    86   ar
    86    85    87   ar
    87    86    87   ar
    88    88    89    1
    89    89    92    1
    90    89    90    1
    91    90   100   am
    92    90    91    2
    93    92    93    1
    94    93    94   ar
    95    93    95   ar
    96    94    96   ar
    97    95    97   ar
    98    96    98   ar
    99    97    98   ar
   100    98    99    1
   101   100   101    1
   102   101   102    1
   103   101   104    1
   104   102   103    2
   105   104   105    1
   106   105   106    1
   107   106   107    1
   108   107   108    1
   109   109   110    1
   110   110   113    1
   111   110   111    1
   112   111   112    2
   113   111   115   am
   114   113   114    1
   115   115   116    1
   116   116   119    1
   117   116   117    1
   118   117   123   am
   119   117   118    2
   120   119   120    1
   121   119   121    1
   122   120   122    1
   123   123   124    1
   124   124   125    1
   125   124   127    1
   126   125   126    2
   127   127   128    1
   128   128   129    1
   129   128   130    1
   130   131   132    1
   131   132   135    1
   132   132   133    1
   133   133   139   am
   134   133   134    2
   135   135   136    1
   136   136   137    2
   137   136   138   am
   138   139   140    1
   139   140   143    1
   140   140   141    1
   141   141   142    2
   142   143   144    1
   143   143   145    1
   144   144   146    1
   145   147   148    1
   146   148   151    1
   147   148   149    1
   148   149   150    2
   149   149   155   am
   150   151   152    1
   151   152   154   ar
   152   152   153   ar
   153   155   156    1
   154   156   157    1
   155   156   159    1
   156   157   164   am
   157   157   158    2
   158   159   160    1
   159   160   161    1
   160   161   162    1
   161   162   163    1
   162   164   170    1
   163   164   165    1
   164   165   168    1
   165   165   166    1
   166   166   167    2
   167   166   171   am
   168   168   169    1
   169   169   170    1
   170   171   172    1
   171   172   173    1
   172   173   174    2
   173   175   176    1
   174   176   179    1
   175   176   177    1
   176   177   183   am
   177   177   178    2
   178   179   180    1
   179   180   182   ar
   180   180   181   ar
   181   183   184    1
   182   184   187    1
   183   184   185    1
   184   185   186    2
   185   185   191   am
   186   187   188    1
   187   188   189    1
   188   189   190    1
   189   191   192    1
   190   192   195    1
   191   192   193    1
   192   193   194    2
   193   193   197   am
   194   195   196    1
   195   197   198    1
   196   198   201    1
   197   198   199    1
   198   199   208   am
   199   199   200    2
   200   201   202    1
   201   202   203    1
   202   203   204    1
   203   204   205    2
   204   205   206    1
   205   205   207    1
   206   208   209    1
   207   209   210    1
   208   210   211    2
   209   212   213    1
   210   213   216    1
   211   213   214    1
   212   214   215    2
   213   216   217    1
   214   217   218    2
   215   217   219    1
   216   218   220    1
   217   219   221    1
   218   220   221    2
   219   222   223    1
   220   223   226    1
   221   223   224    1
   222   224   225    2
   223   224   236   am
   224   226   227    1
   225   227   228    2
   226   227   229    1
   227   228   230    1
   228   229   231    1
   229   229   232    1
   230   230   231    2
   231   231   233    1
   232   232   234    2
   233   233   235    2
   234   234   235    1
   235   236   237    1
   236   237   240    1
   237   237   238    1
   238   238   239    2
   239   240   241    1
   240   241   242    1
   241   242   243    1
   242   243   244    2
   243   244   246    1
   244   244   245    1
