@<TRIPOS>MOLECULE
./1oxm/protein.pdb
 224 216 0 0 0
SMALL
GASTEIGER

@<TRIPOS>ATOM
      1 N           8.8280   62.6010   10.2140 N.3     1  GLY1       -0.2365
      2 CA          9.8680   61.5940   10.2900 C.3     1  GLY1        0.1694
      3 C           9.3140   60.2360   10.6970 C.2     1  GLY1        0.2403
      4 O           8.1520   60.1200   11.1080 O.2     1  GLY1       -0.2735
      5 H           8.7480   63.2610   10.8850 H       1  GLY1        0.1419
      6 N          10.1450   59.2030   10.5790 N.am    2  SER2       -0.2952
      7 CA          9.7580   57.8400   10.9250 C.3     2  SER2        0.1782
      8 C           9.2350   57.7770   12.3470 C.2     2  SER2        0.2432
      9 O           9.7740   58.4430   13.2380 O.2     2  SER2       -0.2732
     10 CB         10.9680   56.9040   10.8300 C.3     2  SER2        0.1660
     11 OG         11.4230   56.7650    9.4990 O.3     2  SER2       -0.3798
     12 H          11.0540   59.3620   10.2900 H       2  SER2        0.1499
     13 H          10.8630   56.0600    9.1410 H       2  SER2        0.2105
     14 N           8.1430   57.0440   12.5460 N.am    3  THR3       -0.2950
     15 CA          7.6120   56.8720   13.8880 C.3     3  THR3        0.1757
     16 C           6.8500   58.0630   14.5120 C.2     3  THR3        0.2431
     17 O           6.1130   57.8750   15.4800 O.2     3  THR3       -0.2732
     18 CB          8.8000   56.3910   14.8000 C.3     3  THR3        0.1373
     19 OG1         8.9940   54.9840   14.6170 O.3     3  THR3       -0.3823
     20 CG2         8.6110   56.7320   16.2600 C.3     3  THR3        0.0340
     21 H           7.6730   56.6250   11.7970 H       3  THR3        0.1499
     22 HG1         9.7130   54.6890   15.1860 H       3  THR3        0.2104
     23 N           6.9920   59.2660   13.9580 N.am    4  GLU4       -0.2969
     24 CA          6.3150   60.4400   14.5230 C.3     4  GLU4        0.1489
     25 C           4.7880   60.3450   14.5320 C.2     4  GLU4        0.2407
     26 O           4.2000   59.6120   13.7340 O.2     4  GLU4       -0.2733
     27 CB          6.7820   61.7220   13.8490 C.3     4  GLU4        0.0349
     28 CG          8.2680   61.9470   13.9900 C.3     4  GLU4        0.0439
     29 CD          8.6650   63.3700   13.7260 C.2     4  GLU4        0.0504
     30 OE1         8.4650   63.8540   12.5950 O.co2   4  GLU4       -0.5492
     31 OE2         9.1790   64.0140   14.6580 O.co2   4  GLU4       -0.5492
     32 H           7.5320   59.3600   13.1470 H       4  GLU4        0.1499
     33 N           4.1650   61.0710   15.4550 N.am    5  THR5       -0.2961
     34 CA          2.7120   61.0430   15.6330 C.3     5  THR5        0.1640
     35 C           1.9180   62.0190   14.7760 C.2     5  THR5        0.2292
     36 O           2.4590   63.0230   14.2930 O.2     5  THR5       -0.2864
     37 CB          2.3300   61.2800   17.1180 C.3     5  THR5        0.1360
     38 OG1         2.9270   62.4980   17.5830 O.3     5  THR5       -0.3823
     39 CG2         2.8310   60.1400   17.9820 C.3     5  THR5        0.0340
     40 H           4.7160   61.6450   16.0200 H       5  THR5        0.1499
     41 HG1         3.8900   62.4200   17.5610 H       5  THR5        0.2104
     42 N           7.0100   66.1480   15.4360 N.3     1  THR1       -0.2371
     43 CA          7.6260   67.1460   16.3190 C.3     1  THR1        0.1601
     44 C           7.9530   68.5000   15.6950 C.2     1  THR1        0.2266
     45 O           7.8070   69.5340   16.3470 O.2     1  THR1       -0.2867
     46 CB          8.9380   66.5940   16.9880 C.3     1  THR1        0.1337
     47 OG1         9.8810   66.2120   15.9750 O.3     1  THR1       -0.3826
     48 CG2         8.6360   65.3730   17.8580 C.3     1  THR1        0.0337
     49 H           7.5960   65.4560   15.0750 H       1  THR1        0.1419
     50 HG1        10.7940   66.3270   16.2880 H       1  THR1        0.2104
     51 N           7.0730   54.1900    8.4200 N.3     1  THR1       -0.2360
     52 CA          7.6640   52.9610    8.9400 C.3     1  THR1        0.1718
     53 C           9.1900   53.0700    8.9510 C.2     1  THR1        0.2408
     54 O           9.7810   53.6850    8.0610 O.2     1  THR1       -0.2735
     55 CB          7.2690   51.7790    8.0360 C.3     1  THR1        0.1350
     56 OG1         5.8470   51.6930    7.9660 O.3     1  THR1       -0.3825
     57 CG2         7.8050   50.4850    8.5600 C.3     1  THR1        0.0337
     58 H           6.7400   54.1700    7.4940 H       1  THR1        0.1419
     59 HG1         5.4800   51.7640    8.8490 H       1  THR1        0.2104
     60 N           9.8230   52.4490    9.9410 N.am    2  LEU2       -0.2972
     61 CA         11.2820   52.4640   10.0700 C.3     2  LEU2        0.1486
     62 C          11.9490   51.6860    8.9240 C.2     2  LEU2        0.2407
     63 O          12.9180   52.1520    8.3270 O.2     2  LEU2       -0.2733
     64 CB         11.6880   51.8730   11.4300 C.3     2  LEU2        0.0290
     65 CG         12.4160   52.7040   12.5060 C.3     2  LEU2        0.0021
     66 CD1        12.3210   54.1930   12.2860 C.3     2  LEU2        0.0001
     67 CD2        11.8790   52.3270   13.8750 C.3     2  LEU2        0.0001
     68 H           9.2970   51.9620   10.6130 H       2  LEU2        0.1499
     69 N          11.3830   50.5300    8.5860 N.am    3  GLY3       -0.2953
     70 CA         11.9230   49.7000    7.5250 C.3     3  GLY3        0.1757
     71 C          11.9000   50.2910    6.1280 C.2     3  GLY3        0.2428
     72 O          12.6940   49.8860    5.2760 O.2     3  GLY3       -0.2732
     73 H          10.5970   50.2220    9.0910 H       3  GLY3        0.1499
     74 N          11.0060   51.2450    5.8750 N.am    4  ASP4       -0.2966
     75 CA         10.9150   51.8610    4.5500 C.3     4  ASP4        0.1542
     76 C          12.1010   52.7460    4.2160 C.2     4  ASP4        0.2410
     77 O          12.3120   53.0900    3.0580 O.2     4  ASP4       -0.2733
     78 CB          9.6110   52.6400    4.3860 C.3     4  ASP4        0.0706
     79 CG          8.4130   51.7330    4.1390 C.2     4  ASP4        0.0525
     80 OD1         8.6060   50.5500    3.7790 O.co2   4  ASP4       -0.5491
     81 OD2         7.2700   52.2110    4.2910 O.co2   4  ASP4       -0.5491
     82 H          10.3940   51.5360    6.5790 H       4  ASP4        0.1499
     83 N          12.8800   53.1060    5.2310 N.am    5  ASN5       -0.2966
     84 CA         14.0680   53.9290    5.0290 C.3     5  ASN5        0.1577
     85 C          15.0960   53.1820    4.1590 C.2     5  ASN5        0.2411
     86 O          15.9310   53.7980    3.4950 O.2     5  ASN5       -0.2733
     87 CB         14.7160   54.2970    6.3770 C.3     5  ASN5        0.1137
     88 CG         13.9560   55.3760    7.1320 C.2     5  ASN5        0.2216
     89 OD1        14.0420   56.5690    6.8130 O.2     5  ASN5       -0.2753
     90 ND2        13.2440   54.9680    8.1690 N.am    5  ASN5       -0.3287
     91 H          12.6490   52.8000    6.1310 H       5  ASN5        0.1499
     92 HD21       12.7880   55.6690    8.6740 H       5  ASN5        0.1449
     93 HD22       13.2290   54.0180    8.3920 H       5  ASN5        0.1449
     94 N          15.0200   51.8550    4.1500 N.am    6  ALA6       -0.2980
     95 CA         15.9570   51.0520    3.3770 C.3     6  ALA6        0.1369
     96 C          15.5420   50.8440    1.9280 C.2     6  ALA6        0.2266
     97 O          16.2810   50.2360    1.1550 O.2     6  ALA6       -0.2865
     98 CB         16.1910   49.7230    4.0560 C.3     6  ALA6        0.0298
     99 H          14.3270   51.3810    4.6560 H       6  ALA6        0.1498
    100 N          11.0780   65.8710    7.3540 N.3     1  TYR1       -0.2378
    101 CA         12.1110   65.5820    8.3430 C.3     1  TYR1        0.1491
    102 C          12.4220   64.1110    8.2750 C.2     1  TYR1        0.2387
    103 O          11.5060   63.2730    8.2440 O.2     1  TYR1       -0.2736
    104 CB         11.6390   65.9670    9.7520 C.3     1  TYR1        0.0527
    105 CG         12.4500   65.3720   10.8970 C.ar    1  TYR1       -0.0201
    106 CD1        13.8330   65.5550   10.9840 C.ar    1  TYR1       -0.0011
    107 CD2        11.8190   64.6520   11.9130 C.ar    1  TYR1       -0.0011
    108 CE1        14.5640   65.0410   12.0560 C.ar    1  TYR1        0.0363
    109 CE2        12.5360   64.1330   12.9880 C.ar    1  TYR1        0.0363
    110 CZ         13.9100   64.3330   13.0560 C.ar    1  TYR1        0.1337
    111 OH         14.6130   63.8300   14.1270 O.3     1  TYR1       -0.5055
    112 H          10.2860   65.2940    7.3410 H       1  TYR1        0.1418
    113 HH         15.4740   64.2650   14.1840 H       1  TYR1        0.2922
    114 N          13.7130   63.8060    8.1580 N.am    2  SER2       -0.2951
    115 CA         14.2000   62.4300    8.0830 C.3     2  SER2        0.1819
    116 C          13.5720   61.7130    6.8820 C.2     2  SER2        0.2433
    117 O          13.7170   62.1820    5.7430 O.2     2  SER2       -0.2732
    118 CB         13.8880   61.7110    9.4010 C.3     2  SER2        0.2109
    119 OG         14.9200   60.8200    9.7540 O.3     2  SER2       -0.2180
    120 H          14.4090   64.5040    8.0990 H       2  SER2        0.1499
    121 N          12.8360   60.6250    7.1260 N.am    3  GLN3       -0.2969
    122 CA         12.1750   59.8900    6.0500 C.3     3  GLN3        0.1491
    123 C          11.2250   60.7960    5.2610 C.2     3  GLN3        0.2407
    124 O          11.0560   60.6210    4.0640 O.2     3  GLN3       -0.2733
    125 CB         11.3890   58.6900    6.5900 C.3     3  GLN3        0.0385
    126 CG         10.6490   57.9620    5.4700 C.3     3  GLN3        0.0870
    127 CD          9.9810   56.6690    5.8800 C.2     3  GLN3        0.2194
    128 OE1         9.3430   56.0050    5.0550 O.2     3  GLN3       -0.2753
    129 NE2        10.1120   56.3000    7.1430 N.am    3  GLN3       -0.3288
    130 H          12.7080   60.2640    8.0140 H       3  GLN3        0.1499
    131 HE21        9.7040   55.4340    7.3540 H       3  GLN3        0.1449
    132 HE22       10.5910   56.8690    7.7660 H       3  GLN3        0.1449
    133 N          10.6170   61.7650    5.9440 N.am    4  GLY4       -0.2963
    134 CA          9.7050   62.6850    5.2920 C.3     4  GLY4        0.1627
    135 C          10.4350   63.5990    4.3330 C.2     4  GLY4        0.2288
    136 O           9.8350   64.1110    3.3920 O.2     4  GLY4       -0.2864
    137 H          10.7630   61.8590    6.9100 H       4  GLY4        0.1499
    138 N          17.4820   66.8500    8.4880 N.3     1  GLY1       -0.2376
    139 CA         18.0250   65.5030    8.5930 C.3     1  GLY1        0.1565
    140 C          17.6940   64.7010    7.3510 C.2     1  GLY1        0.2260
    141 O          17.1250   63.6120    7.4160 O.2     1  GLY1       -0.2867
    142 H          18.0270   67.6540    8.6430 H       1  GLY1        0.1418
    143 N          17.8680   62.3120    4.7570 N.3     1  THR1       -0.2371
    144 CA         18.4930   60.9960    4.6100 C.3     1  THR1        0.1601
    145 C          19.1710   60.7130    3.2670 C.2     1  THR1        0.2266
    146 O          19.9410   59.7580    3.1430 O.2     1  THR1       -0.2867
    147 CB         17.4830   59.8670    4.8980 C.3     1  THR1        0.1337
    148 OG1        16.3860   59.9650    3.9790 O.3     1  THR1       -0.3826
    149 CG2        16.9550   59.9680    6.3280 C.3     1  THR1        0.0337
    150 H          16.9010   62.3240    4.9330 H       1  THR1        0.1419
    151 HG1        15.8120   59.2050    4.1360 H       1  THR1        0.2104
    152 N          25.1930   64.5570   12.4340 N.3     1  ASP1       -0.2388
    153 CA         23.9480   63.8660   12.1140 C.3     1  ASP1        0.1386
    154 C          24.3300   62.9000   11.0050 C.2     1  ASP1        0.2245
    155 O          24.3980   63.2710    9.8330 O.2     1  ASP1       -0.2868
    156 CB         22.8600   64.8380   11.6270 C.3     1  ASP1        0.0667
    157 CG         21.5020   64.1430   11.3850 C.2     1  ASP1        0.0522
    158 OD2        21.4390   62.8980   11.3470 O.co2   1  ASP1       -0.5491
    159 OD1        20.4810   64.8520   11.2210 O.co2   1  ASP1       -0.5491
    160 H          25.3790   65.4220   12.0220 H       1  ASP1        0.1418
    161 N          22.8030   60.6120    9.2870 N.3     1  VAL1       -0.2391
    162 CA         21.9360   60.3770    8.1270 C.3     1  VAL1        0.1330
    163 C          22.2210   61.3550    6.9840 C.2     1  VAL1        0.2241
    164 O          21.9080   61.0750    5.8320 O.2     1  VAL1       -0.2868
    165 CB         20.4090   60.4200    8.4840 C.3     1  VAL1        0.0233
    166 CG2        20.1050   59.5000    9.6590 C.3     1  VAL1        0.0019
    167 CG1        19.9550   61.8440    8.7590 C.3     1  VAL1        0.0019
    168 H          22.4540   60.9710   10.1230 H       1  VAL1        0.1418
    169 N          24.6120   57.5920    6.2560 N.3     1  SER1       -0.2359
    170 CA         24.3310   56.4640    7.1420 C.3     1  SER1        0.1743
    171 C          22.8860   56.5140    7.6570 C.2     1  SER1        0.2408
    172 O          22.1940   57.5160    7.4910 O.2     1  SER1       -0.2735
    173 CB         25.3150   56.4870    8.3130 C.3     1  SER1        0.1634
    174 OG         25.0280   55.4650    9.2480 O.3     1  SER1       -0.3800
    175 H          24.5450   58.4920    6.6280 H       1  SER1        0.1419
    176 H          25.8540   55.3450    9.7420 H       1  SER1        0.2105
    177 N          22.4190   55.4230    8.2510 N.am    2  LEU2       -0.2972
    178 CA         21.0670   55.3830    8.7970 C.3     2  LEU2        0.1486
    179 C          21.1010   55.1680   10.3190 C.2     2  LEU2        0.2406
    180 O          20.2600   54.4690   10.8870 O.2     2  LEU2       -0.2733
    181 CB         20.2200   54.3080    8.0930 C.3     2  LEU2        0.0290
    182 CG         19.7330   54.6350    6.6690 C.3     2  LEU2        0.0021
    183 CD1        18.9500   53.4560    6.0850 C.3     2  LEU2        0.0001
    184 CD2        18.8790   55.9000    6.6730 C.3     2  LEU2        0.0001
    185 H          22.9980   54.6360    8.3340 H       2  LEU2        0.1499
    186 N          22.0960   55.7710   10.9660 N.am    3  ILE3       -0.2970
    187 CA         22.2720   55.6790   12.4120 C.3     3  ILE3        0.1485
    188 C          21.8070   57.0000   13.0060 C.2     3  ILE3        0.2406
    189 O          22.2470   58.0700   12.5700 O.2     3  ILE3       -0.2733
    190 CB         23.7700   55.4650   12.8080 C.3     3  ILE3        0.0269
    191 CG1        24.3060   54.1450   12.2450 C.3     3  ILE3        0.0021
    192 CG2        23.9270   55.4710   14.3320 C.3     3  ILE3        0.0022
    193 CD1        23.7840   52.9210   12.9460 C.3     3  ILE3        0.0001
    194 H          22.7310   56.3070   10.4540 H       3  ILE3        0.1499
    195 N          20.9360   56.9240   14.0050 N.am    4  VAL4       -0.2980
    196 CA         20.4190   58.1120   14.6580 C.3     4  VAL4        0.1368
    197 C          21.3150   58.4610   15.8470 C.2     4  VAL4        0.2266
    198 O          21.5080   57.6480   16.7500 O.2     4  VAL4       -0.2865
    199 CB         18.9420   57.9030   15.1180 C.3     4  VAL4        0.0256
    200 CG2        18.4120   59.1400   15.8410 C.3     4  VAL4        0.0022
    201 CG1        18.0590   57.6030   13.9120 C.3     4  VAL4        0.0022
    202 H          20.6630   56.0430   14.3450 H       4  VAL4        0.1498
    203 N          20.7860   64.4200   15.3180 N.3     1  HIS1       -0.2377
    204 CA         19.6190   64.1800   14.4890 C.3     1  HIS1        0.1505
    205 C          18.3340   64.6310   15.1860 C.2     1  HIS1        0.2387
    206 O          17.3070   64.8600   14.5350 O.2     1  HIS1       -0.2736
    207 CB         19.5040   62.6930   14.1460 C.3     1  HIS1        0.0685
    208 CG         18.4220   62.3910   13.1560 C.2     1  HIS1        0.0392
    209 ND1        18.3710   62.9670   11.9050 N.pl3   1  HIS1       -0.3185
    210 CD2        17.3240   61.6000   13.2480 C.2     1  HIS1        0.0692
    211 CE1        17.2920   62.5490   11.2680 C.3     1  HIS1        0.1815
    212 NE2        16.6390   61.7200   12.0630 N.pl3   1  HIS1       -0.3146
    213 H          21.2760   63.6540   15.6940 H       1  HIS1        0.1418
    214 HD1        18.9800   63.6150   11.5190 H       1  HIS1        0.1481
    215 HE2        15.8170   61.2550   11.7940 H       1  HIS1        0.1484
    216 N          18.3870   64.7800   16.5030 N.am    2  LEU2       -0.2982
    217 CA         17.1990   65.1650   17.2510 C.3     2  LEU2        0.1368
    218 C          17.2470   66.5950   17.7290 C.2     2  LEU2        0.2266
    219 O          16.4310   67.0030   18.5540 O.2     2  LEU2       -0.2865
    220 CB         17.0330   64.2340   18.4450 C.3     2  LEU2        0.0276
    221 CG         17.1240   62.7560   18.0820 C.3     2  LEU2        0.0021
    222 CD2        17.2190   61.9260   19.3430 C.3     2  LEU2        0.0001
    223 CD1        15.9240   62.3670   17.2460 C.3     2  LEU2        0.0001
    224 H          19.2140   64.6430   17.0100 H       2  LEU2        0.1498
@<TRIPOS>UNITY_ATOM_ATTR
30 1
charge -1
80 1
charge -1
158 1
charge -1
@<TRIPOS>BOND
     1     1     2    1
     2     1     5    1
     3     2     3    1
     4     3     6   am
     5     3     4    2
     6     6    12    1
     7     6     7    1
     8     7    10    1
     9     7     8    1
    10     8    14   am
    11     8     9    2
    12    10    11    1
    13    11    13    1
    14    14    21    1
    15    14    15    1
    16    15    16    1
    17    15    18    1
    18    16    23   am
    19    16    17    2
    20    18    19    1
    21    18    20    1
    22    19    22    1
    23    23    32    1
    24    23    24    1
    25    24    27    1
    26    24    25    1
    27    25    26    2
    28    25    33   am
    29    27    28    1
    30    28    29    1
    31    29    30   ar
    32    29    31   ar
    33    33    34    1
    34    33    40    1
    35    34    35    1
    36    34    37    1
    37    35    36    2
    38    37    38    1
    39    37    39    1
    40    38    41    1
    41    42    49    1
    42    42    43    1
    43    43    44    1
    44    43    46    1
    45    44    45    2
    46    46    47    1
    47    46    48    1
    48    47    50    1
    49    51    58    1
    50    51    52    1
    51    52    55    1
    52    52    53    1
    53    53    54    2
    54    53    60   am
    55    55    56    1
    56    55    57    1
    57    56    59    1
    58    60    61    1
    59    60    68    1
    60    61    62    1
    61    61    64    1
    62    62    63    2
    63    62    69   am
    64    64    65    1
    65    65    66    1
    66    65    67    1
    67    69    70    1
    68    69    73    1
    69    70    71    1
    70    71    72    2
    71    71    74   am
    72    74    75    1
    73    74    82    1
    74    75    76    1
    75    75    78    1
    76    76    77    2
    77    76    83   am
    78    78    79    1
    79    79    80   ar
    80    79    81   ar
    81    83    84    1
    82    83    91    1
    83    84    85    1
    84    84    87    1
    85    85    86    2
    86    85    94   am
    87    87    88    1
    88    88    89    2
    89    88    90   am
    90    90    93    1
    91    90    92    1
    92    94    95    1
    93    94    99    1
    94    95    96    1
    95    95    98    1
    96    96    97    2
    97   100   112    1
    98   100   101    1
    99   101   102    1
   100   101   104    1
   101   102   114   am
   102   102   103    2
   103   104   105    1
   104   105   106   ar
   105   105   107   ar
   106   106   108   ar
   107   107   109   ar
   108   108   110   ar
   109   109   110   ar
   110   110   111    1
   111   111   113    1
   112   114   115    1
   113   114   120    1
   114   115   116    1
   115   115   118    1
   116   116   117    2
   117   116   121   am
   118   118   119    1
   119   121   122    1
   120   121   130    1
   121   122   123    1
   122   122   125    1
   123   123   124    2
   124   123   133   am
   125   125   126    1
   126   126   127    1
   127   127   128    2
   128   127   129   am
   129   129   131    1
   130   129   132    1
   131   133   134    1
   132   133   137    1
   133   134   135    1
   134   135   136    2
   135   138   139    1
   136   138   142    1
   137   139   140    1
   138   140   141    2
   139   143   144    1
   140   143   150    1
   141   144   145    1
   142   144   147    1
   143   145   146    2
   144   147   148    1
   145   147   149    1
   146   148   151    1
   147   152   160    1
   148   152   153    1
   149   153   154    1
   150   153   156    1
   151   154   155    2
   152   156   157    1
   153   157   159   ar
   154   157   158   ar
   155   161   162    1
   156   161   168    1
   157   162   163    1
   158   162   165    1
   159   163   164    2
   160   165   167    1
   161   165   166    1
   162   169   175    1
   163   169   170    1
   164   170   171    1
   165   170   173    1
   166   171   172    2
   167   171   177   am
   168   173   174    1
   169   174   176    1
   170   177   185    1
   171   177   178    1
   172   178   181    1
   173   178   179    1
   174   179   180    2
   175   179   186   am
   176   181   182    1
   177   182   183    1
   178   182   184    1
   179   186   194    1
   180   186   187    1
   181   187   190    1
   182   187   188    1
   183   188   189    2
   184   188   195   am
   185   190   191    1
   186   190   192    1
   187   191   193    1
   188   195   202    1
   189   195   196    1
   190   196   199    1
   191   196   197    1
   192   197   198    2
   193   199   201    1
   194   199   200    1
   195   203   204    1
   196   203   213    1
   197   204   207    1
   198   204   205    1
   199   205   206    2
   200   205   216   am
   201   207   208    1
   202   208   209    1
   203   208   210    2
   204   209   211    1
   205   209   214    1
   206   210   212    1
   207   211   212    1
   208   212   215    1
   209   216   224    1
   210   216   217    1
   211   217   218    1
   212   217   220    1
   213   218   219    2
   214   220   221    1
   215   221   223    1
   216   221   222    1
