@<TRIPOS>MOLECULE
./2fzs/protein.pdb
 225 219 0 0 0
SMALL
GASTEIGER

@<TRIPOS>ATOM
      1 N          59.8910   69.5020   47.3420 N.3     1  GLN1       -0.1245
      2 CA         59.3350   69.2400   48.6750 C.3     1  GLN1        0.1566
      3 C          60.3830   68.6570   49.5990 C.2     1  GLN1        0.2260
      4 O          61.1370   67.7620   49.1990 O.2     1  GLN1       -0.2867
      5 CB         58.2420   68.2030   48.5640 C.3     1  GLN1        0.0367
      6 CG         56.8330   68.8520   48.4170 C.3     1  GLN1        0.0905
      7 CD         56.3190   69.4180   49.7610 C.2     1  GLN1        0.2608
      8 OE1        56.2300   70.6290   49.9350 O.2     1  GLN1       -0.2717
      9 NE2        55.9740   68.5360   50.7050 N.am    1  GLN1       -0.0878
     10 N          58.8920   74.3310   47.5140 N.3     1  PRO1       -0.2102
     11 CA         57.5550   74.7650   47.8840 C.3     1  PRO1        0.1504
     12 C          57.1950   74.4880   49.3400 C.2     1  PRO1        0.2576
     13 O          56.0770   74.8100   49.7640 O.2     1  PRO1       -0.2718
     14 CB         56.6700   73.9170   46.9870 C.3     1  PRO1        0.0282
     15 CG         57.4260   72.6030   46.8330 C.3     1  PRO1        0.0208
     16 CD         58.8770   72.9990   46.8680 C.3     1  PRO1        0.0893
     17 N          58.0800   73.8470   50.0870 N.am    2  GLY2       -0.1943
     18 CA         57.7890   73.6010   51.4810 C.3     2  GLY2        0.2014
     19 C          58.0300   72.1540   51.7640 C.2     2  GLY2        0.2639
     20 O          58.6770   71.4860   50.9850 O.2     2  GLY2       -0.2714
     21 N          57.4830   71.6540   52.8530 N.am    3  GLY3       -0.1939
     22 CA         57.5590   70.2310   53.1250 C.3     3  GLY3        0.2014
     23 C          57.4020   69.8330   54.5770 C.2     3  GLY3        0.2639
     24 O          56.8400   70.5420   55.3580 O.2     3  GLY3       -0.2714
     25 N          57.9390   68.6690   54.9260 N.am    4  VAL4       -0.1963
     26 CA         57.7000   68.0760   56.2460 C.3     4  VAL4        0.1727
     27 C          58.5950   68.7340   57.2980 C.2     4  VAL4        0.2616
     28 O          59.8110   68.8760   57.1000 O.2     4  VAL4       -0.2715
     29 CB         57.9200   66.5440   56.1660 C.3     4  VAL4        0.0290
     30 CG2        57.8020   65.8940   57.5600 C.3     4  VAL4        0.0023
     31 CG1        56.9180   65.9160   55.2270 C.3     4  VAL4        0.0023
     32 N          57.9900   69.1550   58.4120 N.am    5  ILE5       -0.1963
     33 CA         58.7190   69.8420   59.4560 C.3     5  ILE5        0.1727
     34 C          59.8750   69.0490   60.0800 C.2     5  ILE5        0.2616
     35 O          60.9610   69.5810   60.2100 O.2     5  ILE5       -0.2715
     36 CB         57.7620   70.4220   60.5260 C.3     5  ILE5        0.0290
     37 CG1        56.8550   71.4730   59.8980 C.3     5  ILE5        0.0022
     38 CG2        58.5610   71.0850   61.7360 C.3     5  ILE5        0.0023
     39 CD1        55.6260   71.8190   60.7920 C.3     5  ILE5        0.0001
     40 N          59.6650   67.7910   60.4470 N.am    6  THR6       -0.1951
     41 CA         60.7430   67.0820   61.1090 C.3     6  THR6        0.1897
     42 C          61.8910   66.8700   60.1440 C.2     6  THR6        0.2313
     43 O          63.0530   66.9200   60.5420 O.2     6  THR6       -0.2863
     44 CB         60.3340   65.7260   61.6770 C.3     6  THR6        0.1794
     45 OG1        59.5950   65.0140   60.6870 O.3     6  THR6       -0.2208
     46 CG2        59.5320   65.8780   62.9540 C.3     6  THR6        0.0378
     47 N          59.2890   78.5320   50.0890 N.3     1  ALA1       -0.1231
     48 CA         57.9650   78.6270   50.7520 C.3     1  ALA1        0.1694
     49 C          57.8690   77.7120   51.9800 C.2     1  ALA1        0.2593
     50 O          58.2580   76.5410   51.8970 O.2     1  ALA1       -0.2718
     51 CB         56.8640   78.2650   49.7420 C.3     1  ALA1        0.0304
     52 N          57.4060   78.2490   53.1130 N.am    2  SER2       -0.1938
     53 CA         57.1540   77.4700   54.3200 C.3     2  SER2        0.2055
     54 C          58.4440   76.8020   54.8200 C.2     2  SER2        0.2643
     55 O          59.3890   77.5010   55.1240 O.2     2  SER2       -0.2714
     56 CB         56.0680   76.4220   54.0650 C.3     2  SER2        0.2130
     57 OG         55.7280   75.8040   55.3000 O.3     2  SER2       -0.2179
     58 N          58.5130   75.4720   54.8550 N.am    3  MET3       -0.1962
     59 CA         59.8140   74.8300   55.2290 C.3     3  MET3        0.1736
     60 C          61.0000   75.4040   54.4340 C.2     3  MET3        0.2617
     61 O          62.0850   75.6080   55.0080 O.2     3  MET3       -0.2715
     62 CB         59.7440   73.2890   55.1000 C.3     3  MET3        0.0427
     63 CG         60.6900   72.5040   56.0500 C.3     3  MET3        0.0599
     64 SD         60.5820   73.0010   57.7930 S.3     3  MET3       -0.1393
     65 CE         62.1700   73.7620   57.7820 C.3     3  MET3        0.0692
     66 N          60.8200   75.6800   53.1290 N.am    4  GLY4       -0.1940
     67 CA         61.9070   76.3440   52.3530 C.3     4  GLY4        0.2014
     68 C          62.2740   77.7430   52.8780 C.2     4  GLY4        0.2639
     69 O          63.4610   78.0790   52.9440 O.2     4  GLY4       -0.2714
     70 N          61.2840   78.5700   53.2310 N.am    5  ALA5       -0.1963
     71 CA         61.6010   79.9320   53.8010 C.3     5  ALA5        0.1728
     72 C          62.2930   79.8250   55.1300 C.2     5  ALA5        0.2616
     73 O          63.2640   80.5920   55.4510 O.2     5  ALA5       -0.2715
     74 CB         60.3700   80.7420   53.9680 C.3     5  ALA5        0.0334
     75 N          61.8240   78.8740   55.9190 N.am    6  PHE6       -0.1974
     76 CA         62.4030   78.6540   57.2320 C.3     6  PHE6        0.1639
     77 C          63.8970   78.3280   57.1060 C.2     6  PHE6        0.2290
     78 O          64.7100   78.9600   57.7490 O.2     6  PHE6       -0.2864
     79 CB         61.6050   77.5770   58.0080 C.3     6  PHE6        0.0560
     80 CG         62.0700   77.3720   59.4200 C.ar    6  PHE6       -0.0200
     81 CD2        61.4910   78.0890   60.4780 C.ar    6  PHE6       -0.0042
     82 CD1        63.0920   76.4710   59.7010 C.ar    6  PHE6       -0.0042
     83 CE2        61.9080   77.8990   61.7600 C.ar    6  PHE6       -0.0003
     84 CE1        63.5340   76.2730   60.9650 C.ar    6  PHE6       -0.0003
     85 CZ         62.9420   77.0000   62.0290 C.ar    6  PHE6       -0.0000
     86 N          57.3870   82.6560   50.7620 N.3     1  MET1       -0.1230
     87 CA         56.0800   82.5750   51.3940 C.3     1  MET1        0.1702
     88 C          56.2260   81.8970   52.7440 C.2     1  MET1        0.2592
     89 O          57.0160   80.9720   52.9110 O.2     1  MET1       -0.2718
     90 CB         55.0610   81.8400   50.5130 C.3     1  MET1        0.0401
     91 CG         53.6580   81.6830   51.1340 C.3     1  MET1        0.0596
     92 SD         53.4210   80.2980   52.3010 S.3     1  MET1       -0.1393
     93 CE         53.3060   78.8700   51.1610 C.3     1  MET1        0.0692
     94 N          55.5030   82.4110   53.7260 N.am    2  ILE2       -0.1966
     95 CA         55.5140   81.8530   55.0660 C.3     2  ILE2        0.1727
     96 C          54.0950   81.4880   55.4920 C.2     2  ILE2        0.2616
     97 O          53.1250   82.1150   55.0580 O.2     2  ILE2       -0.2715
     98 CB         56.2140   82.8070   56.1010 C.3     2  ILE2        0.0290
     99 CG1        55.4120   84.1350   56.2470 C.3     2  ILE2        0.0022
    100 CG2        57.7060   82.9860   55.6830 C.3     2  ILE2        0.0023
    101 CD1        56.0290   85.1880   57.1750 C.3     2  ILE2        0.0001
    102 N          53.9680   80.4420   56.3030 N.am    3  HIS3       -0.1959
    103 CA         52.6670   80.1500   56.8690 C.3     3  HIS3        0.1784
    104 C          52.8100   79.2410   58.0820 C.2     3  HIS3        0.2620
    105 O          53.8950   78.7070   58.3440 O.2     3  HIS3       -0.2715
    106 CB         51.7370   79.5570   55.8050 C.3     3  HIS3        0.0745
    107 CG         52.1640   78.2200   55.2610 C.2     3  HIS3        0.0653
    108 ND1        51.7790   77.7770   54.0060 N.2     3  HIS3       -0.2310
    109 CD2        52.9130   77.2290   55.7940 C.3     3  HIS3        0.1683
    110 CE1        52.2630   76.5610   53.7980 C.2     3  HIS3        0.1939
    111 NE2        52.9690   76.2130   54.8650 N.2     3  HIS3       -0.2440
    112 N          51.7120   79.0240   58.8010 N.am    4  GLN4       -0.1964
    113 CA         51.7280   78.1320   59.9650 C.3     4  GLN4        0.1718
    114 C          51.6930   76.6350   59.5340 C.2     4  GLN4        0.2458
    115 O          51.4070   76.3190   58.3720 O.2     4  GLN4       -0.2730
    116 CB         50.5020   78.4510   60.8440 C.3     4  GLN4        0.0407
    117 CG         49.1240   78.1590   60.1430 C.3     4  GLN4        0.0908
    118 CD         47.9930   78.2440   61.1560 C.2     4  GLN4        0.2608
    119 OE1        47.0800   79.0730   61.0620 O.2     4  GLN4       -0.2717
    120 NE2        48.0900   77.4300   62.1560 N.am    4  GLN4       -0.0878
    121 N          51.9250   75.7080   60.4840 N.am    5  PRO5       -0.2716
    122 CA         51.8250   74.2740   60.1130 C.3     5  PRO5        0.1536
    123 C          50.4290   73.7710   59.7100 C.2     5  PRO5        0.2598
    124 O          49.4160   74.3600   60.0920 O.2     5  PRO5       -0.2715
    125 CB         52.2850   73.5340   61.3710 C.3     5  PRO5        0.0310
    126 CG         52.9910   74.5850   62.2430 C.3     5  PRO5        0.0237
    127 CD         52.3260   75.8950   61.9030 C.3     5  PRO5        0.0939
    128 N          50.4270   72.7120   58.8920 N.am    6  LEU6       -0.1964
    129 CA         49.2350   72.0290   58.4360 C.3     6  LEU6        0.1728
    130 C          49.4430   70.5760   58.8130 C.2     6  LEU6        0.2617
    131 O          50.5590   70.0570   58.7580 O.2     6  LEU6       -0.2715
    132 CB         49.0300   72.1630   56.9190 C.3     6  LEU6        0.0311
    133 CG         48.7770   73.6040   56.4790 C.3     6  LEU6        0.0022
    134 CD2        50.0280   74.0800   55.7490 C.3     6  LEU6        0.0001
    135 CD1        47.5900   73.7260   55.5640 C.3     6  LEU6        0.0001
    136 N          48.3650   69.9090   59.1950 N.am    7  GLY7       -0.1940
    137 CA         48.5060   68.5540   59.6840 C.3     7  GLY7        0.2014
    138 C          47.1630   67.9000   59.5880 C.2     7  GLY7        0.2639
    139 O          46.1990   68.4510   59.0370 O.2     7  GLY7       -0.2714
    140 N          47.0820   66.7060   60.1230 N.am    8  GLY8       -0.1954
    141 CA         45.8100   65.9820   60.0200 C.3     8  GLY8        0.1869
    142 C          45.8840   64.6500   60.7130 C.2     8  GLY8        0.2309
    143 O          46.7970   63.8450   60.4240 O.2     8  GLY8       -0.2863
    144 N          47.4530   64.7470   69.6190 N.3     1  HIS1       -0.1241
    145 CA         48.0380   65.2230   68.3650 C.3     1  HIS1        0.1618
    146 C          47.8440   66.7080   68.0740 C.2     1  HIS1        0.2264
    147 O          48.7610   67.3570   67.5390 O.2     1  HIS1       -0.2867
    148 CB         47.6270   64.3300   67.1770 C.3     1  HIS1        0.0704
    149 CG         48.3100   62.9970   67.2240 C.2     1  HIS1        0.0649
    150 ND1        49.4640   62.7260   66.5230 N.2     1  HIS1       -0.2310
    151 CD2        48.0760   61.9100   67.9960 C.3     1  HIS1        0.1683
    152 CE1        49.8930   61.5120   66.8370 C.2     1  HIS1        0.1939
    153 NE2        49.0610   60.9920   67.7220 N.2     1  HIS1       -0.2440
    154 N          50.3670   68.4530   70.1840 N.3     1  GLU1       -0.1231
    155 CA         51.7100   68.4050   69.5740 C.3     1  GLU1        0.1697
    156 C          51.9060   69.4120   68.4110 C.2     1  GLU1        0.2592
    157 O          52.9320   70.1600   68.3620 O.2     1  GLU1       -0.2718
    158 CB         52.0760   66.9860   69.1490 C.3     1  GLU1        0.0343
    159 CG         53.3690   66.8850   68.3490 C.3     1  GLU1        0.0437
    160 CD         54.6200   67.1460   69.1930 C.2     1  GLU1        0.0504
    161 OE2        54.5150   67.4140   70.4140 O.co2   1  GLU1       -0.5492
    162 OE1        55.7290   67.0640   68.6220 O.co2   1  GLU1       -0.5492
    163 N          50.9140   69.4880   67.5220 N.am    2  ILE2       -0.1980
    164 CA         51.0410   70.4070   66.3840 C.3     2  ILE2        0.1595
    165 C          51.0410   71.8740   66.8740 C.2     2  ILE2        0.2287
    166 O          51.7400   72.7240   66.2960 O.2     2  ILE2       -0.2864
    167 CB         49.9570   70.1790   65.2760 C.3     2  ILE2        0.0276
    168 CG1        50.4730   70.7790   63.9580 C.3     2  ILE2        0.0022
    169 CG2        48.6430   70.7610   65.7270 C.3     2  ILE2        0.0022
    170 CD1        49.6820   70.4390   62.7360 C.3     2  ILE2        0.0001
    171 N          54.6250   72.5040   68.1660 N.3     1  VAL1       -0.1231
    172 CA         55.4750   72.7290   66.9960 C.3     1  VAL1        0.1692
    173 C          55.2710   74.1130   66.3340 C.2     1  VAL1        0.2591
    174 O          56.2600   74.8400   66.0920 O.2     1  VAL1       -0.2718
    175 CB         55.3630   71.5670   65.9890 C.3     1  VAL1        0.0266
    176 CG1        56.1030   71.9190   64.6510 C.3     1  VAL1        0.0020
    177 CG2        55.9500   70.3290   66.6330 C.3     1  VAL1        0.0020
    178 N          54.0200   74.4860   66.0890 N.am    2  LYS2       -0.1980
    179 CA         53.6800   75.8300   65.6220 C.3     2  LYS2        0.1596
    180 C          54.4050   76.9110   66.4430 C.2     2  LYS2        0.2287
    181 O          55.1060   77.7700   65.8880 O.2     2  LYS2       -0.2864
    182 CB         52.1590   76.0310   65.6360 C.3     2  LYS2        0.0298
    183 CG         51.6650   77.4290   65.2520 C.3     2  LYS2        0.0038
    184 CD         50.1450   77.5530   65.2570 C.3     2  LYS2        0.0206
    185 CE         49.6960   78.9230   64.8320 C.3     2  LYS2        0.1093
    186 NZ         48.1970   78.9710   64.6870 N.3     2  LYS2       -0.1314
    187 N          58.3220   76.7940   66.0830 N.3     1  MET1       -0.1230
    188 CA         58.7150   77.2800   64.7320 C.3     1  MET1        0.1702
    189 C          58.5910   78.8230   64.6550 C.2     1  MET1        0.2592
    190 O          59.4370   79.4830   64.0560 O.2     1  MET1       -0.2718
    191 CB         57.8820   76.6450   63.6080 C.3     1  MET1        0.0401
    192 CG         58.0580   75.1060   63.4300 C.3     1  MET1        0.0596
    193 SD         59.7990   74.5860   63.2030 S.3     1  MET1       -0.1393
    194 CE         59.9040   74.7560   61.4120 C.3     1  MET1        0.0692
    195 N          57.5470   79.3820   65.2590 N.am    2  ASN2       -0.1974
    196 CA         57.4530   80.8650   65.3780 C.3     2  ASN2        0.1688
    197 C          58.6150   81.4740   66.1760 C.2     2  ASN2        0.2292
    198 O          59.1480   82.5330   65.8250 O.2     2  ASN2       -0.2864
    199 CB         56.0830   81.3350   65.9140 C.3     2  ASN2        0.1181
    200 CG         54.9080   81.0440   64.9090 C.2     2  ASN2        0.2629
    201 OD1        55.0870   81.0790   63.6880 O.2     2  ASN2       -0.2716
    202 ND2        53.7560   80.7280   65.4350 N.am    2  ASN2       -0.0877
    203 N          61.6550   81.4110   63.8070 N.3     1  MET1       -0.1245
    204 CA         61.4670   82.4290   62.8000 C.3     1  MET1        0.1570
    205 C          61.6920   83.8200   63.3630 C.2     1  MET1        0.2261
    206 O          62.3720   84.6410   62.7540 O.2     1  MET1       -0.2867
    207 CB         60.0650   82.2950   62.2210 C.3     1  MET1        0.0387
    208 CG         60.0920   81.3050   61.1210 C.3     1  MET1        0.0595
    209 SD         60.7540   82.0790   59.6250 S.3     1  MET1       -0.1393
    210 CE         59.1710   82.7780   59.0970 C.3     1  MET1        0.0692
    211 N          55.4950   87.5520   63.9510 N.3     1  ILE1       -0.1245
    212 CA         55.5630   86.2600   63.1730 C.3     1  ILE1        0.1561
    213 C          54.2600   85.4770   63.2820 C.2     1  ILE1        0.2260
    214 O          53.7570   84.9870   62.2490 O.2     1  ILE1       -0.2867
    215 CB         56.7520   85.3310   63.6190 C.3     1  ILE1        0.0252
    216 CG1        58.0920   85.9970   63.3600 C.3     1  ILE1        0.0019
    217 CG2        56.7030   83.9330   62.9300 C.3     1  ILE1        0.0019
    218 CD1        58.3070   86.4430   61.8650 C.3     1  ILE1        0.0001
    219 N          51.8390   84.7510   60.0050 N.3     1  THR1       -0.1218
    220 CA         51.8000   83.3840   59.4660 C.3     1  THR1        0.1862
    221 C          50.4530   82.6420   59.6570 C.2     1  THR1        0.2287
    222 O          50.3330   81.4560   59.2660 O.2     1  THR1       -0.2866
    223 CB         52.9540   82.5230   59.9960 C.3     1  THR1        0.1770
    224 OG1        52.9400   82.5670   61.4250 O.3     1  THR1       -0.2211
    225 CG2        54.2780   83.0450   59.4900 C.3     1  THR1        0.0375
@<TRIPOS>UNITY_ATOM_ATTR
161 1
charge -1
@<TRIPOS>BOND
     1     1     2    1
     2     2     5    1
     3     2     3    1
     4     3     4    2
     5     5     6    1
     6     6     7    1
     7     7     8    2
     8     7     9   am
     9    10    16    1
    10    10    11    1
    11    11    14    1
    12    11    12    1
    13    12    13    2
    14    12    17   am
    15    14    15    1
    16    15    16    1
    17    17    18    1
    18    18    19    1
    19    19    20    2
    20    19    21   am
    21    21    22    1
    22    22    23    1
    23    23    25   am
    24    23    24    2
    25    25    26    1
    26    26    29    1
    27    26    27    1
    28    27    28    2
    29    27    32   am
    30    29    31    1
    31    29    30    1
    32    32    33    1
    33    33    34    1
    34    33    36    1
    35    34    35    2
    36    34    40   am
    37    36    37    1
    38    36    38    1
    39    37    39    1
    40    40    41    1
    41    41    42    1
    42    41    44    1
    43    42    43    2
    44    44    45    1
    45    44    46    1
    46    47    48    1
    47    48    51    1
    48    48    49    1
    49    49    50    2
    50    49    52   am
    51    52    53    1
    52    53    56    1
    53    53    54    1
    54    54    58   am
    55    54    55    2
    56    56    57    1
    57    58    59    1
    58    59    60    1
    59    59    62    1
    60    60    66   am
    61    60    61    2
    62    62    63    1
    63    63    64    1
    64    64    65    1
    65    66    67    1
    66    67    68    1
    67    68    69    2
    68    68    70   am
    69    70    71    1
    70    71    74    1
    71    71    72    1
    72    72    73    2
    73    72    75   am
    74    75    76    1
    75    76    77    1
    76    76    79    1
    77    77    78    2
    78    79    80    1
    79    80    82   ar
    80    80    81   ar
    81    81    83   ar
    82    82    84   ar
    83    83    85   ar
    84    84    85   ar
    85    86    87    1
    86    87    90    1
    87    87    88    1
    88    88    89    2
    89    88    94   am
    90    90    91    1
    91    91    92    1
    92    92    93    1
    93    94    95    1
    94    95    96    1
    95    95    98    1
    96    96    97    2
    97    96   102   am
    98    98   100    1
    99    98    99    1
   100    99   101    1
   101   102   103    1
   102   103   106    1
   103   103   104    1
   104   104   105    2
   105   104   112   am
   106   106   107    1
   107   107   108    2
   108   107   109    1
   109   108   110    1
   110   109   111    1
   111   110   111    2
   112   112   113    1
   113   113   114    1
   114   113   116    1
   115   114   115    2
   116   114   121   am
   117   116   117    1
   118   117   118    1
   119   118   119    2
   120   118   120   am
   121   121   122    1
   122   121   127    1
   123   122   123    1
   124   122   125    1
   125   123   128   am
   126   123   124    2
   127   125   126    1
   128   126   127    1
   129   128   129    1
   130   129   132    1
   131   129   130    1
   132   130   131    2
   133   130   136   am
   134   132   133    1
   135   133   135    1
   136   133   134    1
   137   136   137    1
   138   137   138    1
   139   138   139    2
   140   138   140   am
   141   140   141    1
   142   141   142    1
   143   142   143    2
   144   144   145    1
   145   145   148    1
   146   145   146    1
   147   146   147    2
   148   148   149    1
   149   149   150    2
   150   149   151    1
   151   150   152    1
   152   151   153    1
   153   152   153    2
   154   154   155    1
   155   155   156    1
   156   155   158    1
   157   156   163   am
   158   156   157    2
   159   158   159    1
   160   159   160    1
   161   160   162   ar
   162   160   161   ar
   163   163   164    1
   164   164   167    1
   165   164   165    1
   166   165   166    2
   167   167   168    1
   168   167   169    1
   169   168   170    1
   170   171   172    1
   171   172   175    1
   172   172   173    1
   173   173   178   am
   174   173   174    2
   175   175   176    1
   176   175   177    1
   177   178   179    1
   178   179   182    1
   179   179   180    1
   180   180   181    2
   181   182   183    1
   182   183   184    1
   183   184   185    1
   184   185   186    1
   185   187   188    1
   186   188   191    1
   187   188   189    1
   188   189   190    2
   189   189   195   am
   190   191   192    1
   191   192   193    1
   192   193   194    1
   193   195   196    1
   194   196   199    1
   195   196   197    1
   196   197   198    2
   197   199   200    1
   198   200   201    2
   199   200   202   am
   200   203   204    1
   201   204   207    1
   202   204   205    1
   203   205   206    2
   204   207   208    1
   205   208   209    1
   206   209   210    1
   207   211   212    1
   208   212   213    1
   209   212   215    1
   210   213   214    2
   211   215   217    1
   212   215   216    1
   213   216   218    1
   214   219   220    1
   215   220   221    1
   216   220   223    1
   217   221   222    2
   218   223   225    1
   219   223   224    1
