@<TRIPOS>MOLECULE
./1fcv/protein.pdb
 264 265 0 0 0
SMALL
GASTEIGER

@<TRIPOS>ATOM
      1 N           3.3320   36.3710    0.0240 N.3     1  ASP1       -0.1227
      2 CA          2.7860   35.0050    0.0280 C.3     1  ASP1        0.1748
      3 C           3.7420   34.1850    0.8940 C.2     1  ASP1        0.2596
      4 O           4.8200   33.8500    0.4000 O.2     1  ASP1       -0.2718
      5 CB          2.6070   34.4240   -1.3730 C.3     1  ASP1        0.0701
      6 CG          1.8990   33.0890   -1.3650 C.2     1  ASP1        0.0523
      7 OD2         1.7280   32.5130   -0.2540 O.co2   1  ASP1       -0.5491
      8 OD1         1.4860   32.5990   -2.4430 O.co2   1  ASP1       -0.5491
      9 N           3.3700   33.9650    2.1400 N.am    2  PHE2       -0.1962
     10 CA          4.2050   33.2240    3.0770 C.3     2  PHE2        0.1771
     11 C           3.3090   32.1310    3.6600 C.2     2  PHE2        0.2619
     12 O           2.3330   32.4050    4.3510 O.2     2  PHE2       -0.2715
     13 CB          4.8060   34.1110    4.1770 C.3     2  PHE2        0.0574
     14 CG          5.0460   33.3760    5.4720 C.ar    2  PHE2       -0.0200
     15 CD1         6.1520   32.5540    5.6110 C.ar    2  PHE2       -0.0042
     16 CD2         4.1470   33.4860    6.5210 C.ar    2  PHE2       -0.0042
     17 CE1         6.3670   31.8580    6.7870 C.ar    2  PHE2       -0.0003
     18 CE2         4.3600   32.7910    7.7010 C.ar    2  PHE2       -0.0003
     19 CZ          5.4680   31.9780    7.8360 C.ar    2  PHE2       -0.0000
     20 N           3.5590   30.9030    3.2320 N.am    3  GLU3       -0.1977
     21 CA          2.7200   29.7790    3.5960 C.3     3  GLU3        0.1600
     22 C           3.4310   28.6840    4.3670 C.2     3  GLU3        0.2287
     23 O           2.7660   27.6750    4.6360 O.2     3  GLU3       -0.2864
     24 CB          2.0890   29.1740    2.3240 C.3     3  GLU3        0.0356
     25 CG          1.1120   30.1550    1.6840 C.3     3  GLU3        0.0439
     26 CD          0.5080   29.6730    0.3740 C.2     3  GLU3        0.0504
     27 OE2        -0.3530   28.7530    0.3910 O.co2   3  GLU3       -0.5492
     28 OE1         0.9240   30.1840   -0.6900 O.co2   3  GLU3       -0.5492
     29 N           1.6860   28.5040   10.1270 N.3     1  ARG1       -0.1245
     30 CA          0.7770   29.4800   10.6940 C.3     1  ARG1        0.1563
     31 C           1.3220   29.8970   12.0570 C.2     1  ARG1        0.2260
     32 O           1.9810   29.1130   12.7340 O.2     1  ARG1       -0.2867
     33 CB         -0.6100   28.8540   10.7950 C.3     1  ARG1        0.0307
     34 CG         -1.2250   28.8030    9.4120 C.3     1  ARG1        0.0489
     35 CD         -2.0410   27.5660    9.1720 C.3     1  ARG1        0.2205
     36 NE         -2.2820   27.4590    7.7270 N.pl3   1  ARG1       -0.0865
     37 CZ         -2.9790   26.4190    7.2630 C.cat   1  ARG1        0.5346
     38 NH2        -3.4530   25.4990    8.0960 N.pl3   1  ARG1        0.1354
     39 NH1        -3.1300   26.3760    5.9510 N.pl3   1  ARG1        0.1354
     40 N          -2.9350   25.6650   14.7960 N.3     1  GLN1       -0.1245
     41 CA         -3.3790   25.6310   13.4110 C.3     1  GLN1        0.1566
     42 C          -2.4350   24.8990   12.4870 C.2     1  GLN1        0.2260
     43 O          -2.7870   24.7260   11.3180 O.2     1  GLN1       -0.2867
     44 CB         -3.6270   27.0560   12.8750 C.3     1  GLN1        0.0367
     45 CG         -5.0300   27.5410   13.1670 C.3     1  GLN1        0.0905
     46 CD         -5.2180   29.0180   12.9020 C.2     1  GLN1        0.2608
     47 OE1        -5.7470   29.7150   13.7810 O.2     1  GLN1       -0.2717
     48 NE2        -4.7800   29.4860   11.7280 N.am    1  GLN1       -0.0878
     49 N          -1.8070   21.9200   11.5610 N.3     1  TRP1       -0.1227
     50 CA         -2.2640   20.5630   11.5060 C.3     1  TRP1        0.1734
     51 C          -1.8370   19.8900   10.1880 C.2     1  TRP1        0.2595
     52 O          -1.2750   20.4590    9.2560 O.2     1  TRP1       -0.2718
     53 CB         -3.7540   20.4690   11.5540 C.3     1  TRP1        0.0524
     54 CG         -4.7010   21.4140   12.1300 C.2     1  TRP1       -0.0167
     55 CD1        -5.0930   21.4670   13.4400 C.3     1  TRP1        0.1477
     56 CD2        -5.4590   22.4380   11.4770 C.ar    1  TRP1        0.0113
     57 NE1        -6.0260   22.4610   13.6700 N.2     1  TRP1       -0.2659
     58 CE2        -6.2630   23.0770   12.4670 C.ar    1  TRP1        0.0758
     59 CE3        -5.5270   22.8740   10.1650 C.ar    1  TRP1        0.0009
     60 CZ2        -7.1290   24.1380   12.2070 C.ar    1  TRP1        0.0187
     61 CZ3        -6.3940   23.9310    9.9170 C.ar    1  TRP1        0.0001
     62 CH2        -7.1730   24.5440   10.9030 C.ar    1  TRP1        0.0015
     63 N          -2.3060   18.6650   10.0380 N.am    2  ALA2       -0.1966
     64 CA         -2.0870   17.8690    8.8330 C.3     2  ALA2        0.1728
     65 C          -0.6810   18.0130    8.3060 C.2     2  ALA2        0.2617
     66 O           0.2570   17.7500    9.0800 O.2     2  ALA2       -0.2715
     67 CB         -3.1630   18.1830    7.8470 C.3     2  ALA2        0.0334
     68 N          -0.4320   18.4530    7.0840 N.am    3  SER3       -0.1936
     69 CA          0.9690   18.5410    6.6520 C.3     3  SER3        0.2055
     70 C           1.7440   19.6280    7.3630 C.2     3  SER3        0.2642
     71 O           2.9480   19.6390    7.1020 O.2     3  SER3       -0.2714
     72 CB          1.0970   18.6860    5.1440 C.3     3  SER3        0.2130
     73 OG          0.8940   20.0380    4.7620 O.3     3  SER3       -0.2179
     74 N           1.2010   20.5060    8.2090 N.am    4  LEU4       -0.1977
     75 CA          2.0730   21.4550    8.9010 C.3     4  LEU4        0.1596
     76 C           2.5040   20.9050   10.2520 C.2     4  LEU4        0.2287
     77 O           3.3460   21.5250   10.9090 O.2     4  LEU4       -0.2864
     78 CB          1.4600   22.8440    9.0090 C.3     4  LEU4        0.0297
     79 CG          1.1430   23.4530    7.6340 C.3     4  LEU4        0.0022
     80 CD2         0.2870   24.6750    7.7640 C.3     4  LEU4        0.0001
     81 CD1         2.4080   23.8180    6.8740 C.3     4  LEU4        0.0001
     82 N          -0.9380   37.0670    1.9990 N.3     1  TYR1       -0.1227
     83 CA         -1.8630   36.2060    1.2330 C.3     1  TYR1        0.1736
     84 C          -2.5780   35.2460    2.1780 C.2     1  TYR1        0.2595
     85 O          -1.9190   34.7160    3.0630 O.2     1  TYR1       -0.2718
     86 CB         -1.0760   35.4090    0.1790 C.3     1  TYR1        0.0548
     87 CG         -1.8550   34.2420   -0.3980 C.ar    1  TYR1       -0.0200
     88 CD1        -3.0030   34.4650   -1.1560 C.ar    1  TYR1       -0.0009
     89 CD2        -1.4900   32.9220   -0.1330 C.ar    1  TYR1       -0.0009
     90 CE1        -3.7570   33.4260   -1.6790 C.ar    1  TYR1        0.0417
     91 CE2        -2.2150   31.8760   -0.6450 C.ar    1  TYR1        0.0417
     92 CZ         -3.3230   32.1370   -1.4330 C.ar    1  TYR1        0.1957
     93 OH         -4.0600   31.0800   -1.9250 O.3     1  TYR1       -0.2866
     94 N          -3.8550   34.9950    2.0500 N.am    2  ALA2       -0.1966
     95 CA         -4.6580   34.0340    2.7920 C.3     2  ALA2        0.1728
     96 C          -5.1320   34.3510    4.2010 C.2     2  ALA2        0.2616
     97 O          -5.9220   33.5820    4.7280 O.2     2  ALA2       -0.2715
     98 CB         -3.9830   32.6570    2.7940 C.3     2  ALA2        0.0334
     99 N          -4.7880   35.4350    4.8590 N.am    3  TYR3       -0.1960
    100 CA         -5.2440   35.7960    6.1980 C.3     3  TYR3        0.1756
    101 C          -6.4190   36.7390    6.0140 C.2     3  TYR3        0.2461
    102 O          -6.3750   37.5690    5.1130 O.2     3  TYR3       -0.2730
    103 CB         -4.1080   36.3940    7.0410 C.3     3  TYR3        0.0574
    104 CG         -3.0980   35.3410    7.4630 C.ar    3  TYR3       -0.0198
    105 CD1        -2.0890   34.9280    6.5850 C.ar    3  TYR3       -0.0009
    106 CD2        -3.1670   34.7450    8.7110 C.ar    3  TYR3       -0.0009
    107 CE1        -1.1700   33.9500    6.9220 C.ar    3  TYR3        0.0417
    108 CE2        -2.2500   33.7620    9.0730 C.ar    3  TYR3        0.0417
    109 CZ         -1.2550   33.3830    8.1820 C.ar    3  TYR3        0.1957
    110 OH         -0.3390   32.4090    8.5570 O.3     3  TYR3       -0.2866
    111 N          -7.4850   36.5350    6.7760 N.am    4  PRO4       -0.2716
    112 CA         -7.5450   35.4950    7.8000 C.3     4  PRO4        0.1536
    113 C          -8.0500   34.1590    7.2840 C.2     4  PRO4        0.2599
    114 O          -8.8950   34.1170    6.4030 O.2     4  PRO4       -0.2715
    115 CB         -8.5730   36.0780    8.7860 C.3     4  PRO4        0.0310
    116 CG         -9.5670   36.7160    7.8590 C.3     4  PRO4        0.0237
    117 CD         -8.7630   37.2880    6.7110 C.3     4  PRO4        0.0939
    118 N          -7.6410   33.0710    7.8770 N.am    5  TYR5       -0.1960
    119 CA         -8.1570   31.7510    7.6360 C.3     5  TYR5        0.1771
    120 C          -9.5140   31.5880    8.2940 C.2     5  TYR5        0.2620
    121 O          -9.8900   32.2990    9.2060 O.2     5  TYR5       -0.2715
    122 CB         -7.1700   30.7600    8.2850 C.3     5  TYR5        0.0574
    123 CG         -5.9770   30.5710    7.3630 C.ar    5  TYR5       -0.0198
    124 CD2        -4.7820   31.2370    7.5920 C.ar    5  TYR5       -0.0009
    125 CD1        -6.1010   29.7440    6.2450 C.ar    5  TYR5       -0.0009
    126 CE2        -3.7170   31.0640    6.7230 C.ar    5  TYR5        0.0417
    127 CE1        -5.0280   29.5550    5.4000 C.ar    5  TYR5        0.0417
    128 CZ         -3.8460   30.2210    5.6360 C.ar    5  TYR5        0.1957
    129 OH         -2.7890   30.0510    4.7760 O.3     5  TYR5       -0.2866
    130 N         -10.2940   30.6410    7.8400 N.am    6  CYS6       -0.1954
    131 CA        -11.6580   30.3380    8.2380 C.3     6  CYS6        0.1843
    132 C         -11.8500   28.8320    8.3090 C.2     6  CYS6        0.2625
    133 O         -12.3830   28.2730    9.2810 O.2     6  CYS6       -0.2714
    134 CB        -12.5710   31.0510    7.2540 C.3     6  CYS6        0.0997
    135 SG        -14.3150   30.5730    7.1700 S.3     6  CYS6       -0.0797
    136 N         -11.2320   28.0530    7.4340 N.am    7  TYR7       -0.1960
    137 CA        -11.3020   26.5940    7.4210 C.3     7  TYR7        0.1771
    138 C         -12.7390   26.1020    7.4440 C.2     7  TYR7        0.2620
    139 O         -13.0290   25.2090    8.2220 O.2     7  TYR7       -0.2715
    140 CB        -10.5810   25.8980    8.5900 C.3     7  TYR7        0.0574
    141 CG         -9.1970   26.4380    8.8740 C.ar    7  TYR7       -0.0198
    142 CD2        -8.9730   27.2870    9.9510 C.ar    7  TYR7       -0.0009
    143 CD1        -8.1470   26.1900    7.9970 C.ar    7  TYR7       -0.0009
    144 CE2        -7.7170   27.8350   10.1610 C.ar    7  TYR7        0.0417
    145 CE1        -6.8990   26.7270    8.2070 C.ar    7  TYR7        0.0417
    146 CZ         -6.6780   27.5510    9.2930 C.ar    7  TYR7        0.1957
    147 OH         -5.4100   28.0530    9.5090 O.3     7  TYR7       -0.2866
    148 N         -13.6360   26.6340    6.6470 N.am    8  ASN8       -0.1958
    149 CA        -15.0050   26.2330    6.4340 C.3     8  ASN8        0.1819
    150 C         -15.0090   25.1950    5.3150 C.2     8  ASN8        0.2621
    151 O         -14.0860   25.2600    4.5020 O.2     8  ASN8       -0.2715
    152 CB        -15.8840   27.4050    6.0420 C.3     8  ASN8        0.1195
    153 CG        -15.5020   28.1590    4.7840 C.2     8  ASN8        0.2630
    154 OD1       -14.3920   28.0810    4.2450 O.2     8  ASN8       -0.2716
    155 ND2       -16.4440   28.9520    4.2690 N.am    8  ASN8       -0.0877
    156 N         -15.9180   24.2280    5.3000 N.am    9  LEU9       -0.1963
    157 CA        -15.9440   23.1640    4.2800 C.3     9  LEU9        0.1728
    158 C         -14.5840   22.4710    4.2570 C.2     9  LEU9        0.2617
    159 O         -13.8630   22.3360    3.2720 O.2     9  LEU9       -0.2715
    160 CB        -16.3330   23.7330    2.9150 C.3     9  LEU9        0.0311
    161 CG        -17.7140   24.3830    2.8270 C.3     9  LEU9        0.0022
    162 CD1       -17.8560   25.2700    1.6030 C.3     9  LEU9        0.0001
    163 CD2       -18.8070   23.3250    2.7870 C.3     9  LEU9        0.0001
    164 N         -14.2120   22.0160    5.4510 N.am   10  THR10      -0.1937
    165 CA        -12.9050   21.3650    5.6740 C.3    10  THR10       0.2013
    166 C         -13.1810   20.1930    6.5860 C.2    10  THR10       0.2484
    167 O         -14.3250   20.0120    7.0160 O.2    10  THR10      -0.2729
    168 CB        -12.0440   22.5110    6.2480 C.3    10  THR10       0.1807
    169 OG1       -10.8450   22.6910    5.4860 O.3    10  THR10      -0.2208
    170 CG2       -11.6470   22.3820    7.7010 C.3    10  THR10       0.0379
    171 N         -12.1870   19.3670    6.8740 N.am   11  PRO11      -0.2715
    172 CA        -12.3400   18.2340    7.7740 C.3    11  PRO11       0.1536
    173 C         -12.4180   18.7400    9.2090 C.2    11  PRO11       0.2598
    174 O         -13.1620   18.2090   10.0340 O.2    11  PRO11      -0.2715
    175 CB        -11.0790   17.4210    7.5310 C.3    11  PRO11       0.0310
    176 CG        -10.0560   18.4610    7.2110 C.3    11  PRO11       0.0237
    177 CD        -10.7910   19.4820    6.3840 C.3    11  PRO11       0.0939
    178 N         -11.6780   19.8130    9.5040 N.am   12  ASN12      -0.1973
    179 CA        -11.7410   20.4470   10.8140 C.3    12  ASN12       0.1688
    180 C         -13.1270   21.0680   10.9990 C.2    12  ASN12       0.2292
    181 O         -13.7530   20.8230   12.0310 O.2    12  ASN12      -0.2864
    182 CB        -10.6860   21.5170   11.0400 C.3    12  ASN12       0.1181
    183 CG         -9.2630   21.1120   10.7510 C.2    12  ASN12       0.2629
    184 OD1        -8.6500   20.2780   11.4120 O.2    12  ASN12      -0.2716
    185 ND2        -8.7120   21.7390    9.7170 N.am   12  ASN12      -0.0877
    186 N          -6.7140   39.3770    2.8100 N.3     1  LEU1       -0.1231
    187 CA         -6.6380   38.5980    1.5950 C.3     1  LEU1        0.1678
    188 C          -6.9700   37.1210    1.6980 C.2     1  LEU1        0.2434
    189 O          -6.1540   36.2370    1.4180 O.2     1  LEU1       -0.2733
    190 CB         -5.1680   38.7830    1.1180 C.3     1  LEU1        0.0284
    191 CG         -4.6320   40.1910    0.8420 C.3     1  LEU1        0.0019
    192 CD2        -3.1340   40.2000    0.5940 C.3     1  LEU1        0.0001
    193 CD1        -5.3110   40.7940   -0.3760 C.3     1  LEU1        0.0001
    194 N          -8.2170   36.8000    2.0490 N.am    2  PRO2       -0.2718
    195 CA         -8.6710   35.4280    2.1670 C.3     2  PRO2        0.1535
    196 C          -8.6810   34.7290    0.8210 C.2     2  PRO2        0.2599
    197 O          -9.0580   35.2870   -0.2120 O.2     2  PRO2       -0.2715
    198 CB        -10.0500   35.5710    2.7860 C.3     2  PRO2        0.0310
    199 CG        -10.5310   36.9330    2.4210 C.3     2  PRO2        0.0237
    200 CD         -9.3000   37.7790    2.3120 C.3     2  PRO2        0.0939
    201 N          -8.2190   33.4900    0.7640 N.am    3  SER3       -0.1936
    202 CA         -8.1420   32.7220   -0.4640 C.3     3  SER3        0.2055
    203 C          -9.4800   32.0510   -0.6690 C.2     3  SER3        0.2643
    204 O         -10.0410   31.5020    0.2820 O.2     3  SER3       -0.2714
    205 CB         -7.0530   31.6640   -0.4230 C.3     3  SER3        0.2130
    206 OG         -7.1990   30.8620   -1.5910 O.3     3  SER3       -0.2179
    207 N         -10.1110   32.2730   -1.8080 N.am    4  VAL4       -0.1963
    208 CA        -11.4650   31.7330   -1.9650 C.3     4  VAL4        0.1727
    209 C         -11.5250   30.8170   -3.1750 C.2     4  VAL4        0.2616
    210 O         -12.5210   30.8260   -3.8790 O.2     4  VAL4       -0.2715
    211 CB        -12.5360   32.8190   -2.0350 C.3     4  VAL4        0.0290
    212 CG2       -12.6250   33.5580   -0.7030 C.3     4  VAL4        0.0023
    213 CG1       -12.2580   33.7830   -3.1900 C.3     4  VAL4        0.0023
    214 N         -10.4680   30.0480   -3.3520 N.am    5  TYR5       -0.1974
    215 CA        -10.3750   29.1030   -4.4660 C.3     5  TYR5        0.1639
    216 C         -11.5100   28.1100   -4.4150 C.2     5  TYR5        0.2290
    217 O         -11.7260   27.6860   -3.2720 O.2     5  TYR5       -0.2864
    218 CB         -8.9720   28.4320   -4.4400 C.3     5  TYR5        0.0560
    219 CG         -7.8260   29.4330   -4.6120 C.ar    5  TYR5       -0.0198
    220 CD1        -8.0940   30.7660   -4.9350 C.ar    5  TYR5       -0.0009
    221 CD2        -6.4960   29.0700   -4.4600 C.ar    5  TYR5       -0.0009
    222 CE1        -7.1150   31.7050   -5.1030 C.ar    5  TYR5        0.0417
    223 CE2        -5.4750   30.0040   -4.6270 C.ar    5  TYR5        0.0417
    224 CZ         -5.7890   31.3070   -4.9520 C.ar    5  TYR5        0.1957
    225 OH         -4.8380   32.2710   -5.1440 O.3     5  TYR5       -0.2866
    226 N         -13.6580   24.3800   -5.0710 N.3     1  ARG1       -0.1245
    227 CA        -13.4350   22.9610   -5.3760 C.3     1  ARG1        0.1563
    228 C         -14.6180   22.4650   -6.2070 C.2     1  ARG1        0.2260
    229 O         -15.7610   22.8760   -6.0910 O.2     1  ARG1       -0.2867
    230 CB        -13.1920   22.0470   -4.1830 C.3     1  ARG1        0.0307
    231 CG        -12.1760   22.6630   -3.2250 C.3     1  ARG1        0.0489
    232 CD        -11.7100   21.7150   -2.1610 C.3     1  ARG1        0.2205
    233 NE        -12.7360   21.5010   -1.1570 N.pl3   1  ARG1       -0.0865
    234 CZ        -13.0040   22.3020   -0.1440 C.cat   1  ARG1        0.5346
    235 NH1       -12.3230   23.4170    0.0760 N.pl3   1  ARG1        0.1354
    236 NH2       -13.9870   21.9160    0.6580 N.pl3   1  ARG1        0.1354
    237 N         -18.5570   28.5560    0.4140 N.3     1  LEU1       -0.1245
    238 CA        -17.1200   28.5400    0.6050 C.3     1  LEU1        0.1561
    239 C         -16.6370   29.9920    0.5860 C.2     1  LEU1        0.2260
    240 O         -15.9610   30.4660    1.4890 O.2     1  LEU1       -0.2867
    241 CB        -16.4220   27.7000   -0.4580 C.3     1  LEU1        0.0270
    242 CG        -14.9410   27.3760   -0.1670 C.3     1  LEU1        0.0019
    243 CD1       -14.4210   26.2330   -1.0230 C.3     1  LEU1        0.0001
    244 CD2       -14.0810   28.6100   -0.4270 C.3     1  LEU1        0.0001
    245 N         -15.7590   32.9330    4.1700 N.3     1  ARG1       -0.1245
    246 CA        -14.4160   33.4930    4.2360 C.3     1  ARG1        0.1563
    247 C         -14.3700   35.0060    4.1330 C.2     1  ARG1        0.2260
    248 O         -13.5300   35.6630    4.7530 O.2     1  ARG1       -0.2867
    249 CB        -13.6210   32.8370    3.0920 C.3     1  ARG1        0.0307
    250 CG        -13.0830   31.4930    3.5460 C.3     1  ARG1        0.0489
    251 CD        -12.6660   30.6760    2.3410 C.3     1  ARG1        0.2205
    252 NE        -12.5720   29.2980    2.8420 N.pl3   1  ARG1       -0.0865
    253 CZ        -11.6960   28.4160    2.3710 C.cat   1  ARG1        0.5346
    254 NH2       -11.7640   27.2500    2.9600 N.pl3   1  ARG1        0.1354
    255 NH1       -10.8720   28.7920    1.4270 N.pl3   1  ARG1        0.1354
    256 N          -9.6130   24.0120   -7.7800 N.3     1  GLN1       -0.1245
    257 CA         -8.4120   23.5400   -7.1020 C.3     1  GLN1        0.1566
    258 C          -8.1490   22.0600   -7.1350 C.2     1  GLN1        0.2260
    259 O          -6.9990   21.6180   -7.2460 O.2     1  GLN1       -0.2867
    260 CB         -8.5630   24.0990   -5.6950 C.3     1  GLN1        0.0367
    261 CG         -7.4200   23.7410   -4.7790 C.3     1  GLN1        0.0905
    262 CD         -7.5810   24.5970   -3.5320 C.2     1  GLN1        0.2608
    263 OE1        -6.5900   25.2400   -3.1950 O.2     1  GLN1       -0.2717
    264 NE2        -8.7860   24.5710   -2.9860 N.am    1  GLN1       -0.0878
@<TRIPOS>UNITY_ATOM_ATTR
7 1
charge -1
27 1
charge -1
@<TRIPOS>BOND
     1     1     2    1
     2     2     5    1
     3     2     3    1
     4     3     4    2
     5     3     9   am
     6     5     6    1
     7     6     8   ar
     8     6     7   ar
     9     9    10    1
    10    10    11    1
    11    10    13    1
    12    11    20   am
    13    11    12    2
    14    13    14    1
    15    14    15   ar
    16    14    16   ar
    17    15    17   ar
    18    16    18   ar
    19    17    19   ar
    20    18    19   ar
    21    20    21    1
    22    21    24    1
    23    21    22    1
    24    22    23    2
    25    24    25    1
    26    25    26    1
    27    26    28   ar
    28    26    27   ar
    29    29    30    1
    30    30    33    1
    31    30    31    1
    32    31    32    2
    33    33    34    1
    34    34    35    1
    35    35    36    1
    36    36    37    2
    37    37    39    1
    38    37    38    1
    39    40    41    1
    40    41    42    1
    41    41    44    1
    42    42    43    2
    43    44    45    1
    44    45    46    1
    45    46    48   am
    46    46    47    2
    47    49    50    1
    48    50    51    1
    49    50    53    1
    50    51    52    2
    51    51    63   am
    52    53    54    1
    53    54    56    2
    54    54    55    1
    55    55    57    1
    56    56    59   ar
    57    56    58   ar
    58    57    58    2
    59    58    60   ar
    60    59    61   ar
    61    60    62   ar
    62    61    62   ar
    63    63    64    1
    64    64    67    1
    65    64    65    1
    66    65    68   am
    67    65    66    2
    68    68    69    1
    69    69    72    1
    70    69    70    1
    71    70    71    2
    72    70    74   am
    73    72    73    1
    74    74    75    1
    75    75    78    1
    76    75    76    1
    77    76    77    2
    78    78    79    1
    79    79    81    1
    80    79    80    1
    81    82    83    1
    82    83    86    1
    83    83    84    1
    84    84    94   am
    85    84    85    2
    86    86    87    1
    87    87    88   ar
    88    87    89   ar
    89    88    90   ar
    90    89    91   ar
    91    90    92   ar
    92    91    92   ar
    93    92    93    1
    94    94    95    1
    95    95    98    1
    96    95    96    1
    97    96    97    2
    98    96    99   am
    99    99   100    1
   100   100   101    1
   101   100   103    1
   102   101   102    2
   103   101   111   am
   104   103   104    1
   105   104   105   ar
   106   104   106   ar
   107   105   107   ar
   108   106   108   ar
   109   107   109   ar
   110   108   109   ar
   111   109   110    1
   112   111   117    1
   113   111   112    1
   114   112   113    1
   115   112   115    1
   116   113   114    2
   117   113   118   am
   118   115   116    1
   119   116   117    1
   120   118   119    1
   121   119   122    1
   122   119   120    1
   123   120   130   am
   124   120   121    2
   125   122   123    1
   126   123   125   ar
   127   123   124   ar
   128   124   126   ar
   129   125   127   ar
   130   126   128   ar
   131   127   128   ar
   132   128   129    1
   133   130   131    1
   134   131   134    1
   135   131   132    1
   136   132   136   am
   137   132   133    2
   138   134   135    1
   139   136   137    1
   140   137   138    1
   141   137   140    1
   142   138   148   am
   143   138   139    2
   144   140   141    1
   145   141   143   ar
   146   141   142   ar
   147   142   144   ar
   148   143   145   ar
   149   144   146   ar
   150   145   146   ar
   151   146   147    1
   152   148   149    1
   153   149   150    1
   154   149   152    1
   155   150   151    2
   156   150   156   am
   157   152   153    1
   158   153   154    2
   159   153   155   am
   160   156   157    1
   161   157   160    1
   162   157   158    1
   163   158   159    2
   164   158   164   am
   165   160   161    1
   166   161   162    1
   167   161   163    1
   168   164   165    1
   169   165   168    1
   170   165   166    1
   171   166   171   am
   172   166   167    2
   173   168   169    1
   174   168   170    1
   175   171   177    1
   176   171   172    1
   177   172   175    1
   178   172   173    1
   179   173   178   am
   180   173   174    2
   181   175   176    1
   182   176   177    1
   183   178   179    1
   184   179   180    1
   185   179   182    1
   186   180   181    2
   187   182   183    1
   188   183   185   am
   189   183   184    2
   190   186   187    1
   191   187   190    1
   192   187   188    1
   193   188   189    2
   194   188   194   am
   195   190   191    1
   196   191   193    1
   197   191   192    1
   198   194   195    1
   199   194   200    1
   200   195   196    1
   201   195   198    1
   202   196   197    2
   203   196   201   am
   204   198   199    1
   205   199   200    1
   206   201   202    1
   207   202   203    1
   208   202   205    1
   209   203   207   am
   210   203   204    2
   211   205   206    1
   212   207   208    1
   213   208   209    1
   214   208   211    1
   215   209   210    2
   216   209   214   am
   217   211   213    1
   218   211   212    1
   219   214   215    1
   220   215   218    1
   221   215   216    1
   222   216   217    2
   223   218   219    1
   224   219   220   ar
   225   219   221   ar
   226   220   222   ar
   227   221   223   ar
   228   222   224   ar
   229   223   224   ar
   230   224   225    1
   231   226   227    1
   232   227   228    1
   233   227   230    1
   234   228   229    2
   235   230   231    1
   236   231   232    1
   237   232   233    1
   238   233   234    2
   239   234   235    1
   240   234   236    1
   241   237   238    1
   242   238   241    1
   243   238   239    1
   244   239   240    2
   245   241   242    1
   246   242   243    1
   247   242   244    1
   248   245   246    1
   249   246   249    1
   250   246   247    1
   251   247   248    2
   252   249   250    1
   253   250   251    1
   254   251   252    1
   255   252   253    2
   256   253   255    1
   257   253   254    1
   258   256   257    1
   259   257   258    1
   260   257   260    1
   261   258   259    2
   262   260   261    1
   263   261   262    1
   264   262   263    2
   265   262   264   am
