@<TRIPOS>MOLECULE
./3ku1/protein.pdb
 211 203 0 0 0
SMALL
GASTEIGER

@<TRIPOS>ATOM
      1 N          45.7780   18.2250   -1.3690 N.3     1  MET1       -0.1230
      2 CA         46.3810   19.4620   -1.8510 C.3     1  MET1        0.1702
      3 C          45.5320   20.6720   -1.4780 C.2     1  MET1        0.2592
      4 O          45.9490   21.5130   -0.6810 O.2     1  MET1       -0.2718
      5 CB         46.5790   19.4060   -3.3670 C.3     1  MET1        0.0401
      6 CG         47.3370   18.1790   -3.8490 C.3     1  MET1        0.0596
      7 SD         48.9960   18.0670   -3.1520 S.3     1  MET1       -0.1393
      8 CE         49.4660   16.4160   -3.6610 C.3     1  MET1        0.0692
      9 N          44.3390   20.7540   -2.0580 N.am    2  ILE2       -0.1966
     10 CA         43.4010   21.8950   -1.7780 C.3     2  ILE2        0.1727
     11 C          43.0460   22.1850   -0.3200 C.2     2  ILE2        0.2616
     12 O          42.6440   21.2900    0.4030 O.2     2  ILE2       -0.2715
     13 CB         42.0540   21.7720   -2.5710 C.3     2  ILE2        0.0290
     14 CG1        42.2880   21.9640   -4.0650 C.3     2  ILE2        0.0022
     15 CG2        41.0330   22.8030   -2.1330 C.3     2  ILE2        0.0023
     16 CD1        42.4560   23.4280   -4.5320 C.3     2  ILE2        0.0001
     17 N          43.1520   23.4530    0.0720 N.am    3  SER3       -0.1950
     18 CA         42.7620   23.9360    1.3990 C.3     3  SER3        0.1924
     19 C          41.4340   23.3630    1.8610 C.2     3  SER3        0.2314
     20 O          40.5990   23.0010    1.0510 O.2     3  SER3       -0.2863
     21 CB         42.6750   25.4640    1.3810 C.3     3  SER3        0.2116
     22 OG         41.7040   25.9270    2.3090 O.3     3  SER3       -0.2180
     23 N          38.9950   24.9410    3.7290 N.3     1  ARG1       -0.1231
     24 CA         38.0250   26.0030    3.4260 C.3     1  ARG1        0.1694
     25 C          37.5590   25.9440    1.9710 C.2     1  ARG1        0.2591
     26 O          36.4380   25.5830    1.6710 O.2     1  ARG1       -0.2718
     27 CB         38.7230   27.3300    3.6320 C.3     1  ARG1        0.0321
     28 CG         37.8660   28.4490    4.1150 C.3     1  ARG1        0.0489
     29 CD         38.6940   29.6910    4.0480 C.3     1  ARG1        0.2205
     30 NE         38.9310   29.9890    2.6450 N.pl3   1  ARG1       -0.0865
     31 CZ         39.9810   30.6460    2.1840 C.cat   1  ARG1        0.5346
     32 NH2        40.8980   31.0810    3.0290 N.pl3   1  ARG1        0.1354
     33 NH1        40.1120   30.8660    0.8870 N.pl3   1  ARG1        0.1354
     34 N          38.4540   26.3020    1.0670 N.am    2  LEU2       -0.1980
     35 CA         38.2590   26.1120   -0.3560 C.3     2  LEU2        0.1596
     36 C          37.6070   24.7990   -0.7180 C.2     2  LEU2        0.2287
     37 O          36.9640   24.6780   -1.7480 O.2     2  LEU2       -0.2864
     38 CB         39.6120   26.2110   -1.0680 C.3     2  LEU2        0.0297
     39 CG         40.2410   27.6040   -1.2320 C.3     2  LEU2        0.0022
     40 CD1        41.0010   27.6370   -2.5310 C.3     2  LEU2        0.0001
     41 CD2        39.1980   28.6930   -1.2120 C.3     2  LEU2        0.0001
     42 N          35.0280   32.7350  -10.5440 N.3     1  ASP1       -0.1227
     43 CA         35.6170   32.8210   -9.2360 C.3     1  ASP1        0.1748
     44 C          36.3180   34.1690   -9.2160 C.2     1  ASP1        0.2596
     45 O          37.2660   34.4150   -9.9530 O.2     1  ASP1       -0.2718
     46 CB         36.5640   31.6280   -9.1050 C.3     1  ASP1        0.0701
     47 CG         37.2920   31.5630   -7.7850 C.2     1  ASP1        0.0523
     48 OD2        36.7690   32.0230   -6.7360 O.co2   1  ASP1       -0.5491
     49 OD1        38.4050   31.0170   -7.8290 O.co2   1  ASP1       -0.5491
     50 N          35.7930   35.0670   -8.4070 N.am    2  VAL2       -0.1966
     51 CA         36.2520   36.4480   -8.3400 C.3     2  VAL2        0.1727
     52 C          37.3390   36.4840   -7.3140 C.2     2  VAL2        0.2617
     53 O          37.1320   36.0420   -6.1930 O.2     2  VAL2       -0.2715
     54 CB         35.0940   37.3530   -7.8400 C.3     2  VAL2        0.0290
     55 CG2        35.4810   38.8290   -7.8640 C.3     2  VAL2        0.0023
     56 CG1        33.8610   37.1160   -8.6600 C.3     2  VAL2        0.0023
     57 N          38.5010   37.0050   -7.6540 N.am    3  GLY3       -0.1940
     58 CA         39.6260   36.9900   -6.6940 C.3     3  GLY3        0.2014
     59 C          40.2460   35.6120   -6.5240 C.2     3  GLY3        0.2640
     60 O          40.5330   35.1650   -5.4280 O.2     3  GLY3       -0.2714
     61 N          40.4190   34.9330   -7.6370 N.am    4  SER4       -0.1935
     62 CA         40.9430   33.6170   -7.6330 C.3     4  SER4        0.2055
     63 C          42.4690   33.7460   -7.5590 C.2     4  SER4        0.2643
     64 O          43.1790   33.8460   -8.5720 O.2     4  SER4       -0.2714
     65 CB         40.5180   32.9550   -8.9370 C.3     4  SER4        0.2130
     66 OG         40.7350   31.5710   -8.8930 O.3     4  SER4       -0.2179
     67 N          43.0240   33.7880   -6.3730 N.am    5  ASP5       -0.1959
     68 CA         44.4580   33.6540   -6.3360 C.3     5  ASP5        0.1783
     69 C          44.7140   32.3920   -7.1020 C.2     5  ASP5        0.2620
     70 O          43.8900   31.4600   -7.0930 O.2     5  ASP5       -0.2715
     71 CB         44.8860   33.3080   -4.9210 C.3     5  ASP5        0.0728
     72 CG         46.0780   34.0970   -4.4560 C.2     5  ASP5        0.0526
     73 OD1        46.6330   34.9500   -5.2350 O.co2   5  ASP5       -0.5491
     74 OD2        46.4230   33.8210   -3.2700 O.co2   5  ASP5       -0.5491
     75 N          45.8550   32.3050   -7.7400 N.am    6  HIS6       -0.1959
     76 CA         46.3820   30.9640   -7.9970 C.3     6  HIS6        0.1784
     77 C          45.4390   29.9430   -8.6460 C.2     6  HIS6        0.2620
     78 O          45.8600   28.8300   -8.9240 O.2     6  HIS6       -0.2715
     79 CB         46.9190   30.3990   -6.6870 C.3     6  HIS6        0.0745
     80 CG         48.2880   30.9070   -6.3350 C.2     6  HIS6        0.0653
     81 ND1        49.4260   30.5190   -7.0150 N.2     6  HIS6       -0.2310
     82 CD2        48.7020   31.7670   -5.3730 C.3     6  HIS6        0.1683
     83 CE1        50.4780   31.1220   -6.4940 C.2     6  HIS6        0.1939
     84 NE2        50.0670   31.8730   -5.4890 N.2     6  HIS6       -0.2440
     85 N          44.1920   30.3250   -8.8960 N.am    7  ALA7       -0.1963
     86 CA         43.1990   29.4970   -9.5980 C.3     7  ALA7        0.1728
     87 C          42.9210   28.1380   -8.9510 C.2     7  ALA7        0.2616
     88 O          42.4300   27.2230   -9.6040 O.2     7  ALA7       -0.2715
     89 CB         43.5310   29.3600  -11.1120 C.3     7  ALA7        0.0334
     90 N          43.2010   28.0160   -7.6590 N.am    8  TYR8       -0.1960
     91 CA         43.1700   26.6940   -7.0410 C.3     8  TYR8        0.1771
     92 C          41.7850   26.0910   -7.1180 C.2     8  TYR8        0.2619
     93 O          41.6090   24.8860   -7.4400 O.2     8  TYR8       -0.2715
     94 CB         43.6160   26.7190   -5.5910 C.3     8  TYR8        0.0574
     95 CG         45.1020   26.9680   -5.3560 C.ar    8  TYR8       -0.0198
     96 CD1        46.0920   26.3080   -6.1140 C.ar    8  TYR8       -0.0009
     97 CD2        45.5170   27.8510   -4.3330 C.ar    8  TYR8       -0.0009
     98 CE1        47.4390   26.5750   -5.8880 C.ar    8  TYR8        0.0417
     99 CE2        46.8400   28.0960   -4.0800 C.ar    8  TYR8        0.0417
    100 CZ         47.8100   27.4700   -4.8470 C.ar    8  TYR8        0.1957
    101 OH         49.1340   27.7600   -4.5710 O.3     8  TYR8       -0.2866
    102 N          40.7960   26.9330   -6.8330 N.am    9  LEU9       -0.1964
    103 CA         39.4150   26.4730   -6.8380 C.3     9  LEU9        0.1713
    104 C          38.8540   26.1040   -8.2550 C.2     9  LEU9        0.2458
    105 O          38.4820   24.9440   -8.4920 O.2     9  LEU9       -0.2730
    106 CB         38.5560   27.4990   -6.1200 C.3     9  LEU9        0.0310
    107 CG         37.0870   27.2120   -5.8790 C.3     9  LEU9        0.0022
    108 CD2        36.9250   25.9710   -5.0500 C.3     9  LEU9        0.0001
    109 CD1        36.5290   28.4480   -5.1760 C.3     9  LEU9        0.0001
    110 N          38.8140   27.0620   -9.2030 N.am   10  PRO10      -0.2727
    111 CA         38.4430   26.5670  -10.4930 C.3    10  PRO10       0.1402
    112 C          39.2860   25.3390  -10.9280 C.2    10  PRO10       0.2269
    113 O          38.7510   24.4440  -11.5910 O.2    10  PRO10      -0.2865
    114 CB         38.6940   27.7680  -11.4160 C.3    10  PRO10       0.0296
    115 CG         39.4230   28.7730  -10.6120 C.3    10  PRO10       0.0237
    116 CD         39.0750   28.5110   -9.2220 C.3    10  PRO10       0.0939
    117 N          38.9200   35.4210  -12.2870 N.3     1  GLY1       -0.1210
    118 CA         39.1270   36.8240  -12.4620 C.3     1  GLY1        0.1956
    119 C          39.8980   37.3980  -11.3000 C.2     1  GLY1        0.2612
    120 O          39.6470   37.0430  -10.1460 O.2     1  GLY1       -0.2717
    121 N          40.8440   38.2890  -11.5860 N.am    2  GLU2       -0.1965
    122 CA         41.6060   38.8950  -10.5080 C.3     2  GLU2        0.1731
    123 C          41.7440   40.3640  -10.7990 C.2     2  GLU2        0.2616
    124 O          41.5680   40.7640  -11.9660 O.2     2  GLU2       -0.2715
    125 CB         42.9670   38.2050  -10.3670 C.3     2  GLU2        0.0370
    126 CG         43.0360   37.2370   -9.1910 C.3     2  GLU2        0.0440
    127 CD         43.2110   37.9980   -7.8660 C.2     2  GLU2        0.0504
    128 OE1        43.2780   39.2750   -7.8980 O.co2   2  GLU2       -0.5492
    129 OE2        43.2770   37.3200   -6.8040 O.co2   2  GLU2       -0.5492
    130 N          42.0410   41.1690   -9.7700 N.am    3  VAL3       -0.1963
    131 CA         41.9930   42.6390   -9.9210 C.3     3  VAL3        0.1727
    132 C          43.3430   43.3240  -10.0310 C.2     3  VAL3        0.2616
    133 O          43.4190   44.4250  -10.4730 O.2     3  VAL3       -0.2715
    134 CB         41.1130   43.3490   -8.8270 C.3     3  VAL3        0.0290
    135 CG2        41.8220   43.4480   -7.4830 C.3     3  VAL3        0.0023
    136 CG1        40.7130   44.7440   -9.2540 C.3     3  VAL3        0.0023
    137 N          44.4110   42.7020   -9.5910 N.am    4  VAL4       -0.1977
    138 CA         45.7110   43.2840   -9.8130 C.3     4  VAL4        0.1596
    139 C          46.6760   42.2380  -10.3700 C.2     4  VAL4        0.2287
    140 O          46.4950   41.0350  -10.1360 O.2     4  VAL4       -0.2864
    141 CB         46.2630   44.0160   -8.5820 C.3     4  VAL4        0.0276
    142 CG2        45.6000   43.5620   -7.3540 C.3     4  VAL4        0.0022
    143 CG1        47.7890   43.7840   -8.4580 C.3     4  VAL4        0.0022
    144 N          48.5240   38.6900   -8.4350 N.3     1  PRO1       -0.2116
    145 CA         47.5970   37.5450   -8.5190 C.3     1  PRO1        0.1372
    146 C          47.1270   37.1970   -9.9250 C.2     1  PRO1        0.2244
    147 O          47.0930   36.0200  -10.2800 O.2     1  PRO1       -0.2868
    148 CB         46.4140   37.9910   -7.6750 C.3     1  PRO1        0.0268
    149 CG         47.0100   38.8860   -6.6370 C.3     1  PRO1        0.0207
    150 CD         48.0750   39.6610   -7.4190 C.3     1  PRO1        0.0892
    151 N          36.0030   43.1190   -9.7050 N.3     1  GLY1       -0.1225
    152 CA         34.8190   42.3150   -9.4100 C.3     1  GLY1        0.1811
    153 C          34.1900   41.6690  -10.6280 C.2     1  GLY1        0.2280
    154 O          34.8880   41.0920  -11.4610 O.2     1  GLY1       -0.2866
    155 N          31.7330   32.0590   -7.3270 N.3     1  THR1       -0.1218
    156 CA         32.2670   31.9920   -5.9860 C.3     1  THR1        0.1862
    157 C          32.9870   33.2910   -5.8000 C.2     1  THR1        0.2287
    158 O          33.6070   33.7760   -6.7720 O.2     1  THR1       -0.2866
    159 CB         33.2340   30.8080   -5.7910 C.3     1  THR1        0.1770
    160 OG1        34.2780   30.8580   -6.7740 O.3     1  THR1       -0.2211
    161 CG2        32.4890   29.4700   -5.8820 C.3     1  THR1        0.0375
    162 N          35.4090   34.2970   -2.6030 N.3     1  ALA1       -0.1231
    163 CA         35.9880   33.8360   -1.3060 C.3     1  ALA1        0.1694
    164 C          37.2180   34.6160   -0.8040 C.2     1  ALA1        0.2593
    165 O          38.0440   35.0570   -1.5850 O.2     1  ALA1       -0.2718
    166 CB         36.3340   32.3600   -1.3900 C.3     1  ALA1        0.0304
    167 N          37.3430   34.7610    0.5070 N.am    2  GLY2       -0.1942
    168 CA         38.5530   35.2910    1.0770 C.3     2  GLY2        0.2014
    169 C          38.6120   36.8070    1.1010 C.2     2  GLY2        0.2638
    170 O          39.7030   37.3870    0.9120 O.2     2  GLY2       -0.2714
    171 N          37.4790   37.4730    1.3540 N.am    3  MET3       -0.1976
    172 CA         37.4680   38.9510    1.3990 C.3     3  MET3        0.1605
    173 C          36.6580   39.4190    2.5600 C.2     3  MET3        0.2287
    174 O          35.9260   38.6450    3.1350 O.2     3  MET3       -0.2864
    175 CB         36.8410   39.5590    0.1340 C.3     3  MET3        0.0413
    176 CG         37.6260   39.3690   -1.1230 C.3     3  MET3        0.0598
    177 SD         36.6480   39.7300   -2.5990 S.3     3  MET3       -0.1393
    178 CE         37.4720   38.7610   -3.8690 C.3     3  MET3        0.0692
    179 N          33.4920   44.3310    1.2680 N.3     1  LEU1       -0.1245
    180 CA         33.9640   44.2910   -0.1100 C.3     1  LEU1        0.1561
    181 C          33.1480   43.2900   -0.9340 C.2     1  LEU1        0.2260
    182 O          32.8870   43.5070   -2.1160 O.2     1  LEU1       -0.2867
    183 CB         35.4460   43.9390   -0.1550 C.3     1  LEU1        0.0270
    184 CG         35.9720   43.5280   -1.5250 C.3     1  LEU1        0.0019
    185 CD1        35.9340   44.6630   -2.5180 C.3     1  LEU1        0.0001
    186 CD2        37.3500   43.0830   -1.3450 C.3     1  LEU1        0.0001
    187 N          31.2720   44.4040   -4.2190 N.3     1  ILE1       -0.1245
    188 CA         31.4650   43.7460   -5.5210 C.3     1  ILE1        0.1561
    189 C          30.1440   43.3550   -6.1760 C.2     1  ILE1        0.2260
    190 O          29.8790   43.6870   -7.3290 O.2     1  ILE1       -0.2867
    191 CB         32.4650   42.5410   -5.4500 C.3     1  ILE1        0.0252
    192 CG1        33.9040   43.0400   -5.5660 C.3     1  ILE1        0.0019
    193 CG2        32.2320   41.5410   -6.5850 C.3     1  ILE1        0.0019
    194 CD1        34.8970   42.1540   -4.9420 C.3     1  ILE1        0.0001
    195 N          32.3920   33.2940    0.7690 N.3     1  GLN1       -0.1245
    196 CA         33.0460   33.1470    2.0300 C.3     1  GLN1        0.1566
    197 C          33.5540   34.5190    2.4660 C.2     1  GLN1        0.2260
    198 O          34.6080   34.9370    2.0270 O.2     1  GLN1       -0.2867
    199 CB         34.1500   32.0920    1.8820 C.3     1  GLN1        0.0367
    200 CG         34.8280   31.6830    3.2130 C.3     1  GLN1        0.0905
    201 CD         36.0250   32.5700    3.5230 C.2     1  GLN1        0.2608
    202 OE1        35.9880   33.4380    4.4260 O.2     1  GLN1       -0.2717
    203 NE2        37.1010   32.4020    2.7110 N.am    1  GLN1       -0.0878
    204 N          35.2930   37.2460    5.1770 N.3     1  ASN1       -0.1240
    205 CA         36.3100   37.0390    6.2370 C.3     1  ASN1        0.1653
    206 C          35.8260   37.6240    7.4870 C.2     1  ASN1        0.2266
    207 O          36.1660   37.1700    8.5580 O.2     1  ASN1       -0.2867
    208 CB         37.6350   37.7080    5.9370 C.3     1  ASN1        0.1155
    209 CG         38.4580   36.9090    5.0300 C.2     1  ASN1        0.2627
    210 OD1        38.3100   35.6800    4.9400 O.2     1  ASN1       -0.2716
    211 ND2        39.3190   37.5850    4.2990 N.am    1  ASN1       -0.0877
@<TRIPOS>UNITY_ATOM_ATTR
48 1
charge -1
73 1
charge -1
128 1
charge -1
@<TRIPOS>BOND
     1     1     2    1
     2     2     5    1
     3     2     3    1
     4     3     9   am
     5     3     4    2
     6     5     6    1
     7     6     7    1
     8     7     8    1
     9     9    10    1
    10    10    13    1
    11    10    11    1
    12    11    17   am
    13    11    12    2
    14    13    14    1
    15    13    15    1
    16    14    16    1
    17    17    18    1
    18    18    21    1
    19    18    19    1
    20    19    20    2
    21    21    22    1
    22    23    24    1
    23    24    25    1
    24    24    27    1
    25    25    34   am
    26    25    26    2
    27    27    28    1
    28    28    29    1
    29    29    30    1
    30    30    31    2
    31    31    33    1
    32    31    32    1
    33    34    35    1
    34    35    38    1
    35    35    36    1
    36    36    37    2
    37    38    39    1
    38    39    40    1
    39    39    41    1
    40    42    43    1
    41    43    44    1
    42    43    46    1
    43    44    45    2
    44    44    50   am
    45    46    47    1
    46    47    49   ar
    47    47    48   ar
    48    50    51    1
    49    51    54    1
    50    51    52    1
    51    52    57   am
    52    52    53    2
    53    54    56    1
    54    54    55    1
    55    57    58    1
    56    58    59    1
    57    59    61   am
    58    59    60    2
    59    61    62    1
    60    62    65    1
    61    62    63    1
    62    63    64    2
    63    63    67   am
    64    65    66    1
    65    67    68    1
    66    68    69    1
    67    68    71    1
    68    69    75   am
    69    69    70    2
    70    71    72    1
    71    72    73   ar
    72    72    74   ar
    73    75    76    1
    74    76    77    1
    75    76    79    1
    76    77    78    2
    77    77    85   am
    78    79    80    1
    79    80    81    2
    80    80    82    1
    81    81    83    1
    82    82    84    1
    83    83    84    2
    84    85    86    1
    85    86    89    1
    86    86    87    1
    87    87    88    2
    88    87    90   am
    89    90    91    1
    90    91    92    1
    91    91    94    1
    92    92    93    2
    93    92   102   am
    94    94    95    1
    95    95    96   ar
    96    95    97   ar
    97    96    98   ar
    98    97    99   ar
    99    98   100   ar
   100    99   100   ar
   101   100   101    1
   102   102   103    1
   103   103   104    1
   104   103   106    1
   105   104   110   am
   106   104   105    2
   107   106   107    1
   108   107   109    1
   109   107   108    1
   110   110   111    1
   111   110   116    1
   112   111   114    1
   113   111   112    1
   114   112   113    2
   115   114   115    1
   116   115   116    1
   117   117   118    1
   118   118   119    1
   119   119   121   am
   120   119   120    2
   121   121   122    1
   122   122   123    1
   123   122   125    1
   124   123   124    2
   125   123   130   am
   126   125   126    1
   127   126   127    1
   128   127   128   ar
   129   127   129   ar
   130   130   131    1
   131   131   132    1
   132   131   134    1
   133   132   133    2
   134   132   137   am
   135   134   136    1
   136   134   135    1
   137   137   138    1
   138   138   139    1
   139   138   141    1
   140   139   140    2
   141   141   143    1
   142   141   142    1
   143   144   145    1
   144   144   150    1
   145   145   146    1
   146   145   148    1
   147   146   147    2
   148   148   149    1
   149   149   150    1
   150   151   152    1
   151   152   153    1
   152   153   154    2
   153   155   156    1
   154   156   157    1
   155   156   159    1
   156   157   158    2
   157   159   160    1
   158   159   161    1
   159   162   163    1
   160   163   166    1
   161   163   164    1
   162   164   165    2
   163   164   167   am
   164   167   168    1
   165   168   169    1
   166   169   170    2
   167   169   171   am
   168   171   172    1
   169   172   175    1
   170   172   173    1
   171   173   174    2
   172   175   176    1
   173   176   177    1
   174   177   178    1
   175   179   180    1
   176   180   181    1
   177   180   183    1
   178   181   182    2
   179   183   184    1
   180   184   185    1
   181   184   186    1
   182   187   188    1
   183   188   189    1
   184   188   191    1
   185   189   190    2
   186   191   193    1
   187   191   192    1
   188   192   194    1
   189   195   196    1
   190   196   199    1
   191   196   197    1
   192   197   198    2
   193   199   200    1
   194   200   201    1
   195   201   203   am
   196   201   202    2
   197   204   205    1
   198   205   208    1
   199   205   206    1
   200   206   207    2
   201   208   209    1
   202   209   211   am
   203   209   210    2
