@<TRIPOS>MOLECULE
./1gwm/protein.pdb
 124 123 0 0 0
SMALL
GASTEIGER

@<TRIPOS>ATOM
      1 N          45.0620  -10.9810   18.4320 N.3     1  TYR1       -0.1227
      2 CA         45.1980  -12.4220   18.5810 C.3     1  TYR1        0.1736
      3 C          44.0440  -13.1080   17.8980 C.2     1  TYR1        0.2596
      4 O          42.8920  -12.6670   17.9710 O.2     1  TYR1       -0.2718
      5 CB         45.2130  -12.7970   20.0630 C.3     1  TYR1        0.0548
      6 CG         45.5530  -14.2520   20.2800 C.ar    1  TYR1       -0.0200
      7 CD1        46.8690  -14.7030   20.1990 C.ar    1  TYR1       -0.0009
      8 CD2        44.5500  -15.1830   20.5180 C.ar    1  TYR1       -0.0009
      9 CE1        47.1780  -16.0660   20.3820 C.ar    1  TYR1        0.0417
     10 CE2        44.8420  -16.5320   20.7070 C.ar    1  TYR1        0.0417
     11 CZ         46.1580  -16.9630   20.6370 C.ar    1  TYR1        0.1957
     12 OH         46.4580  -18.2990   20.8180 O.3     1  TYR1       -0.2866
     13 N          44.3400  -14.2170   17.2390 N.am    2  GLY2       -0.1957
     14 CA         43.3000  -14.9990   16.6100 C.3     2  GLY2        0.1869
     15 C          42.5950  -14.2620   15.4880 C.2     2  GLY2        0.2309
     16 O          41.4690  -14.6230   15.1240 O.2     2  GLY2       -0.2863
     17 N          41.6180  -11.2140   15.6730 N.3     1  ALA1       -0.1231
     18 CA         40.7850  -10.1500   16.2460 C.3     1  ALA1        0.1694
     19 C          41.6270   -8.9660   16.6670 C.2     1  ALA1        0.2592
     20 O          42.7150   -9.1460   17.2330 O.2     1  ALA1       -0.2718
     21 CB         40.0330  -10.6700   17.4520 C.3     1  ALA1        0.0304
     22 N          41.0680   -7.7800   16.4730 N.am    2  MET2       -0.1965
     23 CA         41.4980   -6.5750   17.1830 C.3     2  MET2        0.1736
     24 C          40.7520   -6.6060   18.5260 C.2     2  MET2        0.2616
     25 O          39.5210   -6.6220   18.5490 O.2     2  MET2       -0.2715
     26 CB         41.1110   -5.3510   16.3820 C.3     2  MET2        0.0427
     27 CG         41.3960   -4.0340   17.0610 C.3     2  MET2        0.0599
     28 SD         40.8840   -2.6120   16.1130 S.3     2  MET2       -0.1393
     29 CE         42.0200   -2.6520   14.8900 C.3     2  MET2        0.0692
     30 N          41.5010   -6.6200   19.6200 N.am    3  ILE3       -0.1963
     31 CA         40.9650   -6.6980   20.9760 C.3     3  ILE3        0.1727
     32 C          41.2240   -5.3770   21.6740 C.2     3  ILE3        0.2616
     33 O          42.3900   -4.9770   21.8530 O.2     3  ILE3       -0.2715
     34 CB         41.5870   -7.8380   21.7540 C.3     3  ILE3        0.0290
     35 CG1        41.4860   -9.1260   20.9570 C.3     3  ILE3        0.0022
     36 CG2        40.8620   -8.0120   23.0980 C.3     3  ILE3        0.0023
     37 CD1        42.1660  -10.2930   21.5910 C.3     3  ILE3        0.0001
     38 N          40.1500   -4.6840   22.0350 N.am    4  ILE4       -0.1977
     39 CA         40.2410   -3.3880   22.6570 C.3     4  ILE4        0.1596
     40 C          39.9870   -3.5870   24.1400 C.2     4  ILE4        0.2287
     41 O          38.9740   -4.1550   24.5480 O.2     4  ILE4       -0.2864
     42 CB         39.1780   -2.4320   22.0870 C.3     4  ILE4        0.0276
     43 CG1        39.2040   -2.3670   20.5590 C.3     4  ILE4        0.0022
     44 CG2        39.3330   -1.0450   22.6930 C.3     4  ILE4        0.0022
     45 CD1        38.0140   -1.5490   19.9820 C.3     4  ILE4        0.0001
     46 N          32.2160   -9.0800   19.1960 N.3     1  LYS1       -0.1231
     47 CA         31.7210   -9.5220   20.4910 C.3     1  LYS1        0.1693
     48 C          32.2220   -8.5180   21.5210 C.2     1  LYS1        0.2592
     49 O          33.1970   -7.8130   21.2930 O.2     1  LYS1       -0.2718
     50 CB         32.0010  -10.9710   20.7960 C.3     1  LYS1        0.0285
     51 CG         33.3640  -11.2830   20.9600 C.3     1  LYS1        0.0035
     52 CD         33.5380  -12.7680   21.5360 C.3     1  LYS1        0.0206
     53 CE         34.9830  -13.0780   21.7550 C.3     1  LYS1        0.1093
     54 NZ         35.2300  -14.4520   22.1940 N.3     1  LYS1       -0.1314
     55 N          31.5240   -8.3950   22.6370 N.am    2  ASN2       -0.1960
     56 CA         31.6890   -7.2130   23.4630 C.3     2  ASN2        0.1819
     57 C          30.9710   -7.4180   24.7820 C.2     2  ASN2        0.2621
     58 O          29.8110   -7.8050   24.8120 O.2     2  ASN2       -0.2715
     59 CB         31.1630   -5.9340   22.7750 C.3     2  ASN2        0.1195
     60 CG         29.8200   -6.0790   22.1380 C.2     2  ASN2        0.2630
     61 OD1        29.6580   -6.8620   21.2000 O.2     2  ASN2       -0.2716
     62 ND2        28.8450   -5.2700   22.5830 N.am    2  ASN2       -0.0877
     63 N          31.6730   -7.1460   25.8610 N.am    3  GLU3       -0.1977
     64 CA         31.1360   -7.3460   27.2080 C.3     3  GLU3        0.1600
     65 C          30.1090   -6.2920   27.6210 C.2     3  GLU3        0.2287
     66 O          29.2880   -6.5510   28.4910 O.2     3  GLU3       -0.2864
     67 CB         32.3020   -7.3900   28.2090 C.3     3  GLU3        0.0356
     68 CG         33.1250   -8.6630   28.0870 C.3     3  GLU3        0.0439
     69 CD         34.4300   -8.6570   28.8320 C.2     3  GLU3        0.0504
     70 OE2        34.9500   -7.5900   29.1750 O.co2   3  GLU3       -0.5492
     71 OE1        34.9430   -9.7660   29.0810 O.co2   3  GLU3       -0.5492
     72 N          30.5220  -13.6770   18.8080 N.3     1  TYR1       -0.1241
     73 CA         30.5940  -12.7810   17.6620 C.3     1  TYR1        0.1605
     74 C          29.2490  -12.7340   16.9500 C.2     1  TYR1        0.2264
     75 O          28.5990  -13.7620   16.7200 O.2     1  TYR1       -0.2867
     76 CB         31.6700  -13.2410   16.6660 C.3     1  TYR1        0.0534
     77 CG         33.0780  -12.9090   17.0550 C.ar    1  TYR1       -0.0201
     78 CD1        33.5510  -11.6260   16.9170 C.ar    1  TYR1       -0.0009
     79 CD2        33.9440  -13.8730   17.5620 C.ar    1  TYR1       -0.0009
     80 CE1        34.8440  -11.3140   17.2380 C.ar    1  TYR1        0.0417
     81 CE2        35.2290  -13.5640   17.8900 C.ar    1  TYR1        0.0417
     82 CZ         35.6940  -12.2790   17.7300 C.ar    1  TYR1        0.1957
     83 OH         36.9780  -11.9490   18.0590 O.3     1  TYR1       -0.2866
     84 N          35.5850   -5.1770   27.5080 N.3     1  ARG1       -0.1231
     85 CA         36.4120   -5.4750   26.3560 C.3     1  ARG1        0.1694
     86 C          35.5810   -5.6270   25.0850 C.2     1  ARG1        0.2592
     87 O          34.3970   -5.9610   25.1250 O.2     1  ARG1       -0.2718
     88 CB         37.2080   -6.7370   26.6070 C.3     1  ARG1        0.0321
     89 CG         38.3060   -6.5080   27.5930 C.3     1  ARG1        0.0489
     90 CD         39.0700   -7.7880   27.9200 C.3     1  ARG1        0.2205
     91 NE         38.1590   -8.7710   28.4990 N.pl3   1  ARG1       -0.0865
     92 CZ         38.3750  -10.0820   28.5620 C.cat   1  ARG1        0.5346
     93 NH1        39.4890  -10.6170   28.0690 N.pl3   1  ARG1        0.1354
     94 NH2        37.4610  -10.8620   29.1230 N.pl3   1  ARG1        0.1354
     95 N          36.2420   -5.3870   23.9500 N.am    2  ILE2       -0.1966
     96 CA         35.6180   -5.3910   22.6330 C.3     2  ILE2        0.1727
     97 C          36.5250   -6.1770   21.6900 C.2     2  ILE2        0.2616
     98 O          37.7300   -5.9590   21.6780 O.2     2  ILE2       -0.2715
     99 CB         35.4420   -3.9450   22.0970 C.3     2  ILE2        0.0290
    100 CG1        34.7350   -3.0290   23.0980 C.3     2  ILE2        0.0022
    101 CG2        34.6940   -3.9750   20.7530 C.3     2  ILE2        0.0023
    102 CD1        34.8210   -1.5650   22.7630 C.3     2  ILE2        0.0001
    103 N          35.9590   -7.0720   20.8880 N.am    3  TRP3       -0.1960
    104 CA         36.6740   -7.8440   19.8930 C.3     3  TRP3        0.1768
    105 C          36.0420   -7.5540   18.5280 C.2     3  TRP3        0.2619
    106 O          34.8330   -7.6800   18.3790 O.2     3  TRP3       -0.2715
    107 CB         36.5060   -9.3420   20.1370 C.3     3  TRP3        0.0553
    108 CG         37.1360   -9.9140   21.3840 C.2     3  TRP3       -0.0136
    109 CD1        38.2450  -10.6980   21.4340 C.2     3  TRP3        0.0907
    110 CD2        36.6590   -9.8270   22.7410 C.3     3  TRP3        0.0819
    111 NE1        38.5130  -11.0750   22.7210 N.2     3  TRP3       -0.2482
    112 CE2        37.5510  -10.5690   23.5490 C.2     3  TRP3        0.0665
    113 CE3        35.5610   -9.2220   23.3570 C.2     3  TRP3       -0.0164
    114 CZ2        37.3880  -10.7020   24.9400 C.2     3  TRP3        0.0153
    115 CZ3        35.3870   -9.3770   24.7490 C.2     3  TRP3       -0.0038
    116 CH2        36.3020  -10.1050   25.5090 C.2     3  TRP3        0.0009
    117 N          36.8870   -7.2350   17.5370 N.am    4  ILE4       -0.1977
    118 CA         36.4140   -6.9140   16.1920 C.3     4  ILE4        0.1596
    119 C          37.1860   -7.6930   15.1470 C.2     4  ILE4        0.2287
    120 O          38.4130   -7.8030   15.2080 O.2     4  ILE4       -0.2864
    121 CB         36.5680   -5.4000   15.8870 C.3     4  ILE4        0.0276
    122 CG1        36.0030   -4.5290   16.9900 C.3     4  ILE4        0.0022
    123 CG2        35.9240   -5.0590   14.5520 C.3     4  ILE4        0.0022
    124 CD1        36.3930   -3.0670   16.8580 C.3     4  ILE4        0.0001
@<TRIPOS>UNITY_ATOM_ATTR
70 1
charge -1
@<TRIPOS>BOND
     1     1     2    1
     2     2     3    1
     3     2     5    1
     4     3    13   am
     5     3     4    2
     6     5     6    1
     7     6     7   ar
     8     6     8   ar
     9     7     9   ar
    10     8    10   ar
    11     9    11   ar
    12    10    11   ar
    13    11    12    1
    14    13    14    1
    15    14    15    1
    16    15    16    2
    17    17    18    1
    18    18    19    1
    19    18    21    1
    20    19    22   am
    21    19    20    2
    22    22    23    1
    23    23    26    1
    24    23    24    1
    25    24    25    2
    26    24    30   am
    27    26    27    1
    28    27    28    1
    29    28    29    1
    30    30    31    1
    31    31    32    1
    32    31    34    1
    33    32    33    2
    34    32    38   am
    35    34    35    1
    36    34    36    1
    37    35    37    1
    38    38    39    1
    39    39    42    1
    40    39    40    1
    41    40    41    2
    42    42    43    1
    43    42    44    1
    44    43    45    1
    45    46    47    1
    46    47    50    1
    47    47    48    1
    48    48    49    2
    49    48    55   am
    50    50    51    1
    51    51    52    1
    52    52    53    1
    53    53    54    1
    54    55    56    1
    55    56    59    1
    56    56    57    1
    57    57    58    2
    58    57    63   am
    59    59    60    1
    60    60    61    2
    61    60    62   am
    62    63    64    1
    63    64    65    1
    64    64    67    1
    65    65    66    2
    66    67    68    1
    67    68    69    1
    68    69    71   ar
    69    69    70   ar
    70    72    73    1
    71    73    76    1
    72    73    74    1
    73    74    75    2
    74    76    77    1
    75    77    78   ar
    76    77    79   ar
    77    78    80   ar
    78    79    81   ar
    79    80    82   ar
    80    81    82   ar
    81    82    83    1
    82    84    85    1
    83    85    86    1
    84    85    88    1
    85    86    95   am
    86    86    87    2
    87    88    89    1
    88    89    90    1
    89    90    91    1
    90    91    92    2
    91    92    93    1
    92    92    94    1
    93    95    96    1
    94    96    97    1
    95    96    99    1
    96    97   103   am
    97    97    98    2
    98    99   101    1
    99    99   100    1
   100   100   102    1
   101   103   104    1
   102   104   105    1
   103   104   107    1
   104   105   117   am
   105   105   106    2
   106   107   108    1
   107   108   109    2
   108   108   110    1
   109   109   111    1
   110   110   113    1
   111   110   112    1
   112   111   112    2
   113   112   114    1
   114   113   115    2
   115   114   116    2
   116   115   116    1
   117   117   118    1
   118   118   119    1
   119   118   121    1
   120   119   120    2
   121   121   123    1
   122   121   122    1
   123   122   124    1
