@<TRIPOS>MOLECULE
./2e6u/protein.pdb
 204 203 0 0 0
SMALL
GASTEIGER

@<TRIPOS>ATOM
      1 N           6.1580   14.5270   87.3370 N.3     1  VAL1       -0.1231
      2 CA          7.1260   14.2170   88.3980 C.3     1  VAL1        0.1692
      3 C           6.7960   15.0410   89.6250 C.2     1  VAL1        0.2593
      4 O           6.6560   16.2640   89.5260 O.2     1  VAL1       -0.2718
      5 CB          8.5680   14.5150   87.9130 C.3     1  VAL1        0.0266
      6 CG2         9.5610   14.2900   89.0390 C.3     1  VAL1        0.0020
      7 CG1         8.9200   13.6580   86.6580 C.3     1  VAL1        0.0020
      8 N           6.7090   14.3980   90.7930 N.am    2  GLY2       -0.1942
      9 CA          6.2110   15.0690   91.9730 C.3     2  GLY2        0.2014
     10 C           4.7110   14.9530   92.1320 C.2     2  GLY2        0.2639
     11 O           4.0920   15.6610   92.9230 O.2     2  GLY2       -0.2714
     12 N           4.1110   14.0270   91.3790 N.am    3  ALA3       -0.1963
     13 CA          2.6870   13.7630   91.5360 C.3     3  ALA3        0.1728
     14 C           2.3210   13.4950   92.9950 C.2     3  ALA3        0.2617
     15 O           3.0970   12.8650   93.7430 O.2     3  ALA3       -0.2715
     16 CB          2.2860   12.5610   90.6610 C.3     3  ALA3        0.0334
     17 N           1.1400   13.9680   93.3830 N.am    4  SER4       -0.1936
     18 CA          0.6500   13.8870   94.7750 C.3     4  SER4        0.2040
     19 C          -0.8630   13.6860   94.8240 C.2     4  SER4        0.2485
     20 O          -1.5850   14.3100   94.0500 O.2     4  SER4       -0.2729
     21 CB          1.0170   15.1830   95.5170 C.3     4  SER4        0.2129
     22 OG          0.4950   15.1550   96.8410 O.3     4  SER4       -0.2179
     23 N          -1.3590   12.8410   95.7500 N.am    5  PRO5       -0.2715
     24 CA         -2.8020   12.6700   95.9610 C.3     5  PRO5        0.1536
     25 C          -3.4260   13.7780   96.8160 C.2     5  PRO5        0.2598
     26 O          -4.6590   13.7960   97.0100 O.2     5  PRO5       -0.2715
     27 CB         -2.8760   11.3460   96.7220 C.3     5  PRO5        0.0310
     28 CG         -1.6510   11.2950   97.5090 C.3     5  PRO5        0.0237
     29 CD         -0.5730   11.9570   96.6370 C.3     5  PRO5        0.0939
     30 N          -2.5950   14.6840   97.3350 N.am    6  LYS6       -0.1978
     31 CA         -3.1000   15.7880   98.1630 C.3     6  LYS6        0.1596
     32 C          -3.8150   16.8190   97.2910 C.2     6  LYS6        0.2287
     33 O          -3.1850   17.4350   96.4330 O.2     6  LYS6       -0.2864
     34 CB         -1.9450   16.4670   98.9190 C.3     6  LYS6        0.0298
     35 CG         -1.1280   15.5280   99.8120 C.3     6  LYS6        0.0038
     36 CD         -0.0640   16.2930  100.5850 C.3     6  LYS6        0.0206
     37 CE          0.7550   15.3320  101.4470 C.3     6  LYS6        0.1093
     38 NZ          2.0120   15.9630  102.0250 N.3     6  LYS6       -0.1314
     39 N          -2.1240   20.2280   96.6010 N.3     1  ARG1       -0.1231
     40 CA         -0.8630   20.3480   95.8640 C.3     1  ARG1        0.1694
     41 C          -1.1360   20.7520   94.4180 C.2     1  ARG1        0.2592
     42 O          -2.0540   20.2240   93.7790 O.2     1  ARG1       -0.2718
     43 CB         -0.0950   19.0210   95.8860 C.3     1  ARG1        0.0321
     44 CG          0.5930   18.6930   97.2100 C.3     1  ARG1        0.0489
     45 CD          2.0440   19.0010   97.0980 C.3     1  ARG1        0.2205
     46 NE          2.7960   18.7260   98.3260 N.pl3   1  ARG1       -0.0865
     47 CZ          3.5550   19.6220   98.9270 C.cat   1  ARG1        0.5346
     48 NH1         3.6480   20.8480   98.4280 N.pl3   1  ARG1        0.1354
     49 NH2         4.2320   19.2840  100.0060 N.pl3   1  ARG1        0.1354
     50 N          -0.3350   21.6680   93.8850 N.am    2  ASP2       -0.1962
     51 CA         -0.5090   22.0730   92.4850 C.3     2  ASP2        0.1783
     52 C          -0.3580   20.8880   91.5180 C.2     2  ASP2        0.2620
     53 O          -1.0840   20.8000   90.5260 O.2     2  ASP2       -0.2715
     54 CB          0.4590   23.1850   92.1150 C.3     2  ASP2        0.0728
     55 CG          0.1440   24.4930   92.8470 C.2     2  ASP2        0.0526
     56 OD2        -0.4600   24.4300   93.9450 O.co2   2  ASP2       -0.5491
     57 OD1         0.4980   25.5640   92.3250 O.co2   2  ASP2       -0.5491
     58 N           0.5760   19.9760   91.8070 N.am    3  ALA3       -0.1963
     59 CA          0.7050   18.7410   91.0110 C.3     3  ALA3        0.1728
     60 C          -0.6030   17.9470   90.8910 C.2     3  ALA3        0.2616
     61 O          -0.8890   17.3270   89.8340 O.2     3  ALA3       -0.2715
     62 CB          1.8300   17.8210   91.5910 C.3     3  ALA3        0.0334
     63 N          -1.3880   17.9310   91.9620 N.am    4  ASN4       -0.1972
     64 CA         -2.6650   17.2050   91.9500 C.3     4  ASN4        0.1688
     65 C          -3.6780   17.9190   91.0290 C.2     4  ASN4        0.2292
     66 O          -4.3560   17.2950   90.2060 O.2     4  ASN4       -0.2864
     67 CB         -3.2070   17.0550   93.3740 C.3     4  ASN4        0.1181
     68 CG         -4.4790   16.2250   93.4360 C.2     4  ASN4        0.2629
     69 OD1        -5.5820   16.7500   93.2750 O.2     4  ASN4       -0.2716
     70 ND2        -4.3390   14.9350   93.6940 N.am    4  ASN4       -0.0877
     71 N           4.7540   10.2440   88.6250 N.3     1  VAL1       -0.1231
     72 CA          6.0790    9.7680   89.0140 C.3     1  VAL1        0.1692
     73 C           6.4180   10.3350   90.3880 C.2     1  VAL1        0.2592
     74 O           6.5060   11.5620   90.5670 O.2     1  VAL1       -0.2718
     75 CB          7.1800   10.1390   87.9780 C.3     1  VAL1        0.0266
     76 CG2         8.5700    9.7080   88.5100 C.3     1  VAL1        0.0020
     77 CG1         6.9130    9.4280   86.6280 C.3     1  VAL1        0.0020
     78 N           6.5360    9.4380   91.3700 N.am    2  ASN2       -0.1961
     79 CA          6.8460    9.8220   92.7470 C.3     2  ASN2        0.1804
     80 C           7.1050    8.5130   93.4960 C.2     2  ASN2        0.2463
     81 O           6.1630    7.7510   93.7010 O.2     2  ASN2       -0.2730
     82 CB          5.6880   10.5660   93.4020 C.3     2  ASN2        0.1195
     83 CG          6.0680   11.1150   94.7740 C.2     2  ASN2        0.2630
     84 OD1         7.0080   10.6230   95.3890 O.2     2  ASN2       -0.2716
     85 ND2         5.3660   12.1460   95.2280 N.am    2  ASN2       -0.0877
     86 N           8.3600    8.2280   93.8500 N.am    3  PRO3       -0.2716
     87 CA          8.6810    6.9440   94.5190 C.3     3  PRO3        0.1536
     88 C           7.9850    6.7660   95.8700 C.2     3  PRO3        0.2598
     89 O           8.0300    5.6440   96.4180 O.2     3  PRO3       -0.2715
     90 CB         10.2080    7.0190   94.7540 C.3     3  PRO3        0.0310
     91 CG         10.6950    8.1080   93.8590 C.3     3  PRO3        0.0237
     92 CD          9.5630    9.0560   93.6030 C.3     3  PRO3        0.0939
     93 N           7.3740    7.8300   96.3970 N.am    4  LYS4       -0.1964
     94 CA          6.6270    7.7430   97.6710 C.3     4  LYS4        0.1728
     95 C           5.2870    7.0170   97.5040 C.2     4  LYS4        0.2616
     96 O           4.7860    6.4120   98.4650 O.2     4  LYS4       -0.2715
     97 CB          6.3770    9.1430   98.2590 C.3     4  LYS4        0.0311
     98 CG          5.5170    9.2160   99.5300 C.3     4  LYS4        0.0038
     99 CD          5.3150   10.6590   99.9850 C.3     4  LYS4        0.0206
    100 CE          4.4470   10.7450  101.2410 C.3     4  LYS4        0.1093
    101 NZ          4.3010   12.1730  101.6970 N.3     4  LYS4       -0.1314
    102 N           4.6740    7.1060   96.3280 N.am    5  TYR5       -0.1974
    103 CA          3.2930    6.6040   96.1580 C.3     5  TYR5        0.1639
    104 C           3.1940    5.4540   95.1610 C.2     5  TYR5        0.2290
    105 O           3.9890    5.3670   94.2080 O.2     5  TYR5       -0.2864
    106 CB          2.3900    7.7320   95.6810 C.3     5  TYR5        0.0560
    107 CG          2.2680    8.8780   96.6490 C.ar    5  TYR5       -0.0198
    108 CD2         1.5900    8.7080   97.8630 C.ar    5  TYR5       -0.0009
    109 CD1         2.8190   10.1400   96.3530 C.ar    5  TYR5       -0.0009
    110 CE2         1.4370    9.7480   98.7610 C.ar    5  TYR5        0.0417
    111 CE1         2.6750   11.2110   97.2680 C.ar    5  TYR5        0.0417
    112 CZ          2.0010   10.9880   98.4720 C.ar    5  TYR5        0.1957
    113 OH          1.8270   12.0020   99.3740 O.3     5  TYR5       -0.2866
    114 N           7.5880   18.7980   85.4090 N.3     1  LEU1       -0.1231
    115 CA          8.2800   18.7980   86.7170 C.3     1  LEU1        0.1693
    116 C           7.5680   19.5940   87.8170 C.2     1  LEU1        0.2592
    117 O           7.3130   20.7940   87.6470 O.2     1  LEU1       -0.2718
    118 CB          9.6610   19.3890   86.5070 C.3     1  LEU1        0.0284
    119 CG         10.9320   18.6540   86.1030 C.3     1  LEU1        0.0019
    120 CD2        11.0190   17.1230   86.1660 C.3     1  LEU1        0.0001
    121 CD1        11.6650   19.2960   84.9350 C.3     1  LEU1        0.0001
    122 N           7.2450   18.9240   88.9330 N.am    2  PHE2       -0.1962
    123 CA          6.6550   19.5600   90.1120 C.3     2  PHE2        0.1771
    124 C           7.5350   19.1890   91.3280 C.2     2  PHE2        0.2619
    125 O           7.0340   18.8040   92.3900 O.2     2  PHE2       -0.2715
    126 CB          5.2340   19.0820   90.3750 C.3     2  PHE2        0.0574
    127 CG          4.1970   19.6260   89.4170 C.ar    2  PHE2       -0.0200
    128 CD2         3.4240   20.7360   89.7770 C.ar    2  PHE2       -0.0042
    129 CD1         3.9600   19.0030   88.1990 C.ar    2  PHE2       -0.0042
    130 CE2         2.4340   21.2430   88.9110 C.ar    2  PHE2       -0.0003
    131 CE1         2.9800   19.4900   87.3230 C.ar    2  PHE2       -0.0003
    132 CZ          2.2180   20.6160   87.6840 C.ar    2  PHE2       -0.0000
    133 N           8.8480   19.2760   91.1460 N.am    3  VAL3       -0.1963
    134 CA          9.7680   19.0370   92.2270 C.3     3  VAL3        0.1727
    135 C          10.7600   20.1900   92.3200 C.2     3  VAL3        0.2616
    136 O          10.9270   20.9460   91.3660 O.2     3  VAL3       -0.2715
    137 CB         10.5340   17.7140   92.0470 C.3     3  VAL3        0.0290
    138 CG2         9.5740   16.5300   92.2300 C.3     3  VAL3        0.0023
    139 CG1        11.2160   17.6380   90.7010 C.3     3  VAL3        0.0023
    140 N          11.4180   20.2900   93.4650 N.am    4  LYS4       -0.1977
    141 CA         12.3050   21.4230   93.7070 C.3     4  LYS4        0.1596
    142 C          13.4760   21.4250   92.7230 C.2     4  LYS4        0.2287
    143 O          13.8580   20.3690   92.2150 O.2     4  LYS4       -0.2864
    144 CB         12.7830   21.3720   95.1480 C.3     4  LYS4        0.0298
    145 CG         11.7510   21.9280   96.1040 C.3     4  LYS4        0.0038
    146 CD         12.2120   21.7600   97.5220 C.3     4  LYS4        0.0206
    147 CE         11.3700   22.5930   98.4370 C.3     4  LYS4        0.1093
    148 NZ         10.8160   21.7360   99.5040 N.3     4  LYS4       -0.1314
    149 N          16.2710   18.6280   92.5370 N.3     1  LEU1       -0.1245
    150 CA         15.7550   17.2960   92.1270 C.3     1  LEU1        0.1561
    151 C          15.5720   17.1590   90.6250 C.2     1  LEU1        0.2260
    152 O          15.5710   16.0350   90.0840 O.2     1  LEU1       -0.2867
    153 CB         14.4030   17.0450   92.7980 C.3     1  LEU1        0.0270
    154 CG         14.5030   16.4580   94.2070 C.3     1  LEU1        0.0019
    155 CD2        13.1170   16.3520   94.8410 C.3     1  LEU1        0.0001
    156 CD1        15.1570   15.0690   94.1300 C.3     1  LEU1        0.0001
    157 N          15.9320   14.0330   87.1420 N.3     1  TYR1       -0.1241
    158 CA         14.7510   13.7480   86.3080 C.3     1  TYR1        0.1605
    159 C          14.9660   14.1190   84.8490 C.2     1  TYR1        0.2264
    160 O          14.4490   13.4620   83.9410 O.2     1  TYR1       -0.2867
    161 CB         13.4830   14.3480   86.8980 C.3     1  TYR1        0.0534
    162 CG         12.9890   13.5040   88.0510 C.ar    1  TYR1       -0.0201
    163 CD1        12.4480   12.2340   87.8120 C.ar    1  TYR1       -0.0009
    164 CD2        13.1110   13.9340   89.3630 C.ar    1  TYR1       -0.0009
    165 CE1        12.0050   11.4100   88.8630 C.ar    1  TYR1        0.0417
    166 CE2        12.6660   13.1040   90.4490 C.ar    1  TYR1        0.0417
    167 CZ         12.1030   11.8530   90.1660 C.ar    1  TYR1        0.1957
    168 OH         11.6500   11.0350   91.1920 O.3     1  TYR1       -0.2866
    169 N           7.7340   23.6190   85.7140 N.3     1  GLN1       -0.1231
    170 CA          6.5930   24.3460   86.3050 C.3     1  GLN1        0.1698
    171 C           7.1390   25.4820   87.1980 C.2     1  GLN1        0.2592
    172 O           8.3490   25.5670   87.3570 O.2     1  GLN1       -0.2718
    173 CB          5.7040   23.4210   87.1390 C.3     1  GLN1        0.0381
    174 CG          4.9660   22.3520   86.3010 C.3     1  GLN1        0.0905
    175 CD          3.6560   22.8540   85.6720 C.2     1  GLN1        0.2608
    176 OE1         2.8930   23.6780   86.2570 O.2     1  GLN1       -0.2717
    177 NE2         3.3450   22.3050   84.5210 N.am    1  GLN1       -0.0878
    178 N           6.2660   26.3230   87.7670 N.am    2  TYR2       -0.1962
    179 CA          6.7580   27.4750   88.5580 C.3     2  TYR2        0.1771
    180 C           7.5660   26.9590   89.7380 C.2     2  TYR2        0.2620
    181 O           7.1760   25.9850   90.3870 O.2     2  TYR2       -0.2715
    182 CB          5.6410   28.3490   89.1280 C.3     2  TYR2        0.0574
    183 CG          4.5500   28.7810   88.1820 C.ar    2  TYR2       -0.0198
    184 CD1         4.8300   29.1970   86.8900 C.ar    2  TYR2       -0.0009
    185 CD2         3.2270   28.8370   88.6220 C.ar    2  TYR2       -0.0009
    186 CE1         3.8010   29.6150   86.0300 C.ar    2  TYR2        0.0417
    187 CE2         2.1930   29.2530   87.7700 C.ar    2  TYR2        0.0417
    188 CZ          2.4980   29.6430   86.4880 C.ar    2  TYR2        0.1957
    189 OH          1.4720   30.0670   85.6690 O.3     2  TYR2       -0.2866
    190 N           8.6870   27.6290   89.9990 N.am    3  ASN3       -0.1958
    191 CA          9.5310   27.3480   91.1610 C.3     3  ASN3        0.1819
    192 C          10.3810   26.0770   91.0600 C.2     3  ASN3        0.2621
    193 O          10.9470   25.6380   92.0610 O.2     3  ASN3       -0.2715
    194 CB          8.6950   27.3880   92.4530 C.3     3  ASN3        0.1195
    195 CG          7.9970   28.7530   92.6600 C.2     3  ASN3        0.2630
    196 OD1         8.5370   29.8060   92.3000 O.2     3  ASN3       -0.2716
    197 ND2         6.7960   28.7280   93.2230 N.am    3  ASN3       -0.0877
    198 N          10.4850   25.5010   89.8560 N.am    4  THR4       -0.1951
    199 CA         11.2490   24.2740   89.6480 C.3     4  THR4        0.1897
    200 C          12.4960   24.4300   88.7820 C.2     4  THR4        0.2313
    201 O          13.3180   23.4990   88.6450 O.2     4  THR4       -0.2863
    202 CB         10.3700   23.1640   89.0040 C.3     4  THR4        0.1794
    203 OG1        10.1810   23.4520   87.6030 O.3     4  THR4       -0.2208
    204 CG2         9.0300   23.0500   89.7320 C.3     4  THR4        0.0378
@<TRIPOS>UNITY_ATOM_ATTR
56 1
charge -1
@<TRIPOS>BOND
     1     1     2    1
     2     2     5    1
     3     2     3    1
     4     3     4    2
     5     3     8   am
     6     5     7    1
     7     5     6    1
     8     8     9    1
     9     9    10    1
    10    10    12   am
    11    10    11    2
    12    12    13    1
    13    13    16    1
    14    13    14    1
    15    14    17   am
    16    14    15    2
    17    17    18    1
    18    18    19    1
    19    18    21    1
    20    19    20    2
    21    19    23   am
    22    21    22    1
    23    23    24    1
    24    23    29    1
    25    24    27    1
    26    24    25    1
    27    25    26    2
    28    25    30   am
    29    27    28    1
    30    28    29    1
    31    30    31    1
    32    31    32    1
    33    31    34    1
    34    32    33    2
    35    34    35    1
    36    35    36    1
    37    36    37    1
    38    37    38    1
    39    39    40    1
    40    40    41    1
    41    40    43    1
    42    41    42    2
    43    41    50   am
    44    43    44    1
    45    44    45    1
    46    45    46    1
    47    46    47    2
    48    47    48    1
    49    47    49    1
    50    50    51    1
    51    51    52    1
    52    51    54    1
    53    52    53    2
    54    52    58   am
    55    54    55    1
    56    55    57   ar
    57    55    56   ar
    58    58    59    1
    59    59    60    1
    60    59    62    1
    61    60    61    2
    62    60    63   am
    63    63    64    1
    64    64    65    1
    65    64    67    1
    66    65    66    2
    67    67    68    1
    68    68    69    2
    69    68    70   am
    70    71    72    1
    71    72    75    1
    72    72    73    1
    73    73    74    2
    74    73    78   am
    75    75    77    1
    76    75    76    1
    77    78    79    1
    78    79    82    1
    79    79    80    1
    80    80    81    2
    81    80    86   am
    82    82    83    1
    83    83    85   am
    84    83    84    2
    85    86    92    1
    86    86    87    1
    87    87    90    1
    88    87    88    1
    89    88    93   am
    90    88    89    2
    91    90    91    1
    92    91    92    1
    93    93    94    1
    94    94    95    1
    95    94    97    1
    96    95   102   am
    97    95    96    2
    98    97    98    1
    99    98    99    1
   100    99   100    1
   101   100   101    1
   102   102   103    1
   103   103   104    1
   104   103   106    1
   105   104   105    2
   106   106   107    1
   107   107   109   ar
   108   107   108   ar
   109   108   110   ar
   110   109   111   ar
   111   110   112   ar
   112   111   112   ar
   113   112   113    1
   114   114   115    1
   115   115   118    1
   116   115   116    1
   117   116   117    2
   118   116   122   am
   119   118   119    1
   120   119   121    1
   121   119   120    1
   122   122   123    1
   123   123   126    1
   124   123   124    1
   125   124   133   am
   126   124   125    2
   127   126   127    1
   128   127   129   ar
   129   127   128   ar
   130   128   130   ar
   131   129   131   ar
   132   130   132   ar
   133   131   132   ar
   134   133   134    1
   135   134   137    1
   136   134   135    1
   137   135   136    2
   138   135   140   am
   139   137   139    1
   140   137   138    1
   141   140   141    1
   142   141   142    1
   143   141   144    1
   144   142   143    2
   145   144   145    1
   146   145   146    1
   147   146   147    1
   148   147   148    1
   149   149   150    1
   150   150   151    1
   151   150   153    1
   152   151   152    2
   153   153   154    1
   154   154   156    1
   155   154   155    1
   156   157   158    1
   157   158   159    1
   158   158   161    1
   159   159   160    2
   160   161   162    1
   161   162   163   ar
   162   162   164   ar
   163   163   165   ar
   164   164   166   ar
   165   165   167   ar
   166   166   167   ar
   167   167   168    1
   168   169   170    1
   169   170   173    1
   170   170   171    1
   171   171   172    2
   172   171   178   am
   173   173   174    1
   174   174   175    1
   175   175   177   am
   176   175   176    2
   177   178   179    1
   178   179   182    1
   179   179   180    1
   180   180   190   am
   181   180   181    2
   182   182   183    1
   183   183   184   ar
   184   183   185   ar
   185   184   186   ar
   186   185   187   ar
   187   186   188   ar
   188   187   188   ar
   189   188   189    1
   190   190   191    1
   191   191   192    1
   192   191   194    1
   193   192   198   am
   194   192   193    2
   195   194   195    1
   196   195   196    2
   197   195   197   am
   198   198   199    1
   199   199   200    1
   200   199   202    1
   201   200   201    2
   202   202   203    1
   203   202   204    1
