@<TRIPOS>MOLECULE
./1ahc/ligand.pdb
 15 16 0 0 0
SMALL
GASTEIGER

@<TRIPOS>ATOM
      1  C1'       47.6270   99.6430   -4.1920 C.3     1  ADN1        0.1328
      2  N1        49.8920   98.0910   -8.0920 N.ar    1  ADN1       -0.2188
      3  C2        48.5800   98.3630   -7.9150 C.ar    1  ADN1        0.1205
      4  N3        47.8720   98.6150   -6.7930 N.ar    1  ADN1       -0.2160
      5  C4        48.7250   98.6550   -5.7220 C.ar    1  ADN1        0.1660
      6  C5        50.0720   98.4220   -5.7310 C.ar    1  ADN1        0.1472
      7  C6        50.6520   98.1240   -6.9600 C.ar    1  ADN1        0.1472
      8  N6        51.9360   97.9030   -7.0260 N.pl3   1  ADN1       -0.3413
      9  N7        50.6170   98.5600   -4.4540 N.ar    1  ADN1       -0.2306
     10  C8        49.6170   98.9970   -3.7470 C.ar    1  ADN1        0.0990
     11  N9        48.4370   99.0940   -4.4510 N.ar    1  ADN1       -0.3013
     12 HN61       52.4970   98.0110   -6.1800 H       1  ADN1        0.1438
     13 HN62       52.3690   97.5750   -7.8780 H       1  ADN1        0.1438
     14  H2        48.0230   98.5270   -8.8390 H       1  ADN1        0.1048
     15  H8        49.6680   99.2410   -2.6930 H       1  ADN1        0.1029
@<TRIPOS>BOND
     1     1    11    1
     2     2     3   ar
     3     2     7   ar
     4     3     4   ar
     5     3    14    1
     6     4     5   ar
     7     5     6   ar
     8     5    11   ar
     9     6     7   ar
    10     6     9   ar
    11     7     8    1
    12     8    12    1
    13     8    13    1
    14     9    10   ar
    15    10    15    1
    16    10    11   ar
