@<TRIPOS>MOLECULE
./2wva/protein.pdb
 271 262 0 0 0
SMALL
GASTEIGER

@<TRIPOS>ATOM
      1 N          23.7240   41.2040   -6.8910 N.3     1  ASN1       -0.1240
      2 CA         23.0660   40.3890   -5.8760 C.3     1  ASN1        0.1653
      3 C          23.2680   40.8930   -4.4400 C.2     1  ASN1        0.2266
      4 O          22.3130   40.9840   -3.6610 O.2     1  ASN1       -0.2867
      5 CB         23.5270   38.9400   -5.9850 C.3     1  ASN1        0.1155
      6 CG         22.8610   38.0490   -4.9660 C.2     1  ASN1        0.2627
      7 OD1        21.6360   37.8520   -4.9980 O.2     1  ASN1       -0.2716
      8 ND2        23.6590   37.5000   -4.0520 N.am    1  ASN1       -0.0877
      9 N          21.0270   43.8700   -3.5000 N.3     1  ILE1       -0.1245
     10 CA         19.6760   43.4340   -3.1640 C.3     1  ILE1        0.1561
     11 C          19.6480   42.9190   -1.7270 C.2     1  ILE1        0.2260
     12 O          18.8060   43.3260   -0.9390 O.2     1  ILE1       -0.2867
     13 CB         19.1770   42.3140   -4.0860 C.3     1  ILE1        0.0252
     14 CG1        19.1080   42.7900   -5.5360 C.3     1  ILE1        0.0019
     15 CG2        17.8090   41.8420   -3.6320 C.3     1  ILE1        0.0019
     16 CD1        18.6810   41.7100   -6.4930 C.3     1  ILE1        0.0001
     17 N          12.7290   31.5010   -0.6000 N.3     1  GLU1       -0.1231
     18 CA         12.5470   30.4010   -1.5390 C.3     1  GLU1        0.1697
     19 C          13.8110   29.5740   -1.7780 C.2     1  GLU1        0.2593
     20 O          14.9220   30.0800   -1.7050 O.2     1  GLU1       -0.2718
     21 CB         12.0370   30.9540   -2.8770 C.3     1  GLU1        0.0343
     22 CG         11.7080   29.8960   -3.9280 C.3     1  GLU1        0.0437
     23 CD         10.6510   28.9040   -3.4720 C.2     1  GLU1        0.0504
     24 OE2        11.0170   27.9060   -2.8180 O.co2   1  GLU1       -0.5492
     25 OE1         9.4600   29.1050   -3.7860 O.co2   1  GLU1       -0.5492
     26 N          13.6310   28.2940   -2.0750 N.am    2  THR2       -0.1939
     27 CA         14.7270   27.4670   -2.5620 C.3     2  THR2        0.2028
     28 C          15.4030   28.1130   -3.7790 C.2     2  THR2        0.2643
     29 O          14.7350   28.5300   -4.7410 O.2     2  THR2       -0.2714
     30 CB         14.2150   26.0880   -2.9820 C.3     2  THR2        0.1808
     31 OG1        13.6310   25.4350   -1.8490 O.3     2  THR2       -0.2208
     32 CG2        15.3680   25.2390   -3.5620 C.3     2  THR2        0.0379
     33 N          16.7280   28.1650   -3.7440 N.am    3  GLY3       -0.1939
     34 CA         17.4810   28.9020   -4.7400 C.3     3  GLY3        0.2014
     35 C          18.4820   29.7840   -4.0240 C.2     3  GLY3        0.2639
     36 O          18.7230   29.5990   -2.8210 O.2     3  GLY3       -0.2714
     37 N          19.0690   30.7470   -4.7230 N.am    4  ASP4       -0.1959
     38 CA         20.0790   31.5660   -4.0750 C.3     4  ASP4        0.1783
     39 C          19.4740   32.3630   -2.9190 C.2     4  ASP4        0.2621
     40 O          20.1950   32.8290   -2.0390 O.2     4  ASP4       -0.2715
     41 CB         20.7930   32.4880   -5.0700 C.3     4  ASP4        0.0728
     42 CG         22.1740   32.9170   -4.5790 C.2     4  ASP4        0.0526
     43 OD2        22.8200   32.1360   -3.8450 O.co2   4  ASP4       -0.5491
     44 OD1        22.6260   34.0340   -4.9310 O.co2   4  ASP4       -0.5491
     45 N          18.1570   32.5190   -2.9190 N.am    5  SER5       -0.1936
     46 CA         17.4950   33.2370   -1.8430 C.3     5  SER5        0.2055
     47 C          17.7470   32.5500   -0.4940 C.2     5  SER5        0.2643
     48 O          17.7440   33.2050    0.5450 O.2     5  SER5       -0.2714
     49 CB         15.9910   33.3600   -2.1100 C.3     5  SER5        0.2130
     50 OG         15.7200   34.3160   -3.1130 O.3     5  SER5       -0.2179
     51 N          17.9560   31.2340   -0.5150 N.am    6  TRP6       -0.1973
     52 CA         18.3340   30.4950    0.6820 C.3     6  TRP6        0.1637
     53 C          19.5370   31.1710    1.3050 C.2     6  TRP6        0.2290
     54 O          19.5410   31.5000    2.5050 O.2     6  TRP6       -0.2864
     55 CB         18.7170   29.0560    0.3300 C.3     6  TRP6        0.0537
     56 CG         17.5910   28.0660    0.3850 C.2     6  TRP6       -0.0165
     57 CD1        16.2700   28.3310    0.5960 C.3     6  TRP6        0.1477
     58 CD2        17.6910   26.6540    0.1900 C.ar    6  TRP6        0.0113
     59 NE1        15.5460   27.1680    0.5690 N.2     6  TRP6       -0.2659
     60 CE2        16.3920   26.1230    0.3120 C.ar    6  TRP6        0.0758
     61 CE3        18.7520   25.7860   -0.0720 C.ar    6  TRP6        0.0009
     62 CZ2        16.1260   24.7640    0.1770 C.ar    6  TRP6        0.0187
     63 CZ3        18.4920   24.4410   -0.2030 C.ar    6  TRP6        0.0001
     64 CH2        17.1850   23.9380   -0.0800 C.ar    6  TRP6        0.0015
     65 N          21.1610   34.1290    0.3730 N.3     1  ASN1       -0.1240
     66 CA         21.0060   35.5420    0.6930 C.3     1  ASN1        0.1653
     67 C          20.3600   35.7740    2.0720 C.2     1  ASN1        0.2266
     68 O          20.8440   36.5840    2.8700 O.2     1  ASN1       -0.2867
     69 CB         20.2180   36.2550   -0.3990 C.3     1  ASN1        0.1155
     70 CG         21.0600   36.5220   -1.6370 C.2     1  ASN1        0.2627
     71 OD1        22.2380   36.8590   -1.5320 O.2     1  ASN1       -0.2716
     72 ND2        20.4580   36.3680   -2.8160 N.am    1  ASN1       -0.0877
     73 N          11.7340   21.5190   -0.0230 N.3     1  GLY1       -0.1225
     74 CA         12.4470   22.2480   -1.0550 C.3     1  GLY1        0.1811
     75 C          11.7380   22.1810   -2.3940 C.2     1  GLY1        0.2280
     76 O          12.3600   21.9350   -3.4420 O.2     1  GLY1       -0.2866
     77 N          10.3540   24.1350   -5.1690 N.3     1  ILE1       -0.1245
     78 CA         10.3690   25.5050   -5.6890 C.3     1  ILE1        0.1561
     79 C           8.9480   25.9510   -6.0120 C.2     1  ILE1        0.2260
     80 O           8.1400   25.1650   -6.5360 O.2     1  ILE1       -0.2867
     81 CB         11.3080   25.7100   -6.9120 C.3     1  ILE1        0.0252
     82 CG1        10.8680   24.8730   -8.1110 C.3     1  ILE1        0.0019
     83 CG2        12.7450   25.4060   -6.5520 C.3     1  ILE1        0.0019
     84 CD1        11.6440   25.2320   -9.3830 C.3     1  ILE1        0.0001
     85 N          11.1220   36.5860   -0.6830 N.3     1  MET1       -0.1230
     86 CA         12.2750   36.5430   -1.5790 C.3     1  MET1        0.1702
     87 C          12.2040   35.3000   -2.4330 C.2     1  MET1        0.2592
     88 O          12.4490   34.1950   -1.9430 O.2     1  MET1       -0.2718
     89 CB         13.5680   36.4800   -0.7880 C.3     1  MET1        0.0401
     90 CG         14.3220   37.7830   -0.6930 C.3     1  MET1        0.0596
     91 SD         16.0380   37.4690   -0.2060 S.3     1  MET1       -0.1393
     92 CE         15.8450   37.1810    1.5260 C.3     1  MET1        0.0692
     93 N          11.8930   35.4790   -3.7120 N.am    2  VAL2       -0.1966
     94 CA         11.6540   34.3460   -4.5810 C.3     2  VAL2        0.1727
     95 C          12.3510   34.5600   -5.9150 C.2     2  VAL2        0.2617
     96 O          12.3330   35.6620   -6.4640 O.2     2  VAL2       -0.2715
     97 CB         10.1400   34.1220   -4.7880 C.3     2  VAL2        0.0290
     98 CG2         9.4910   35.3610   -5.3800 C.3     2  VAL2        0.0023
     99 CG1         9.8980   32.9060   -5.6450 C.3     2  VAL2        0.0023
    100 N          12.9900   33.5080   -6.4160 N.am    3  GLY3       -0.1940
    101 CA         13.6140   33.5360   -7.7270 C.3     3  GLY3        0.2014
    102 C          12.6100   33.4610   -8.8630 C.2     3  GLY3        0.2639
    103 O          11.4770   33.0080   -8.6850 O.2     3  GLY3       -0.2714
    104 N          13.0240   33.9090  -10.0440 N.am    4  ASP4       -0.1959
    105 CA         12.1420   33.9080  -11.2070 C.3     4  ASP4        0.1783
    106 C          11.6610   32.4980  -11.5710 C.2     4  ASP4        0.2621
    107 O          10.4810   32.2920  -11.8670 O.2     4  ASP4       -0.2715
    108 CB         12.8080   34.5930  -12.4160 C.3     4  ASP4        0.0728
    109 CG         14.1610   33.9760  -12.7920 C.2     4  ASP4        0.0526
    110 OD2        14.7760   33.3050  -11.9480 O.co2   4  ASP4       -0.5491
    111 OD1        14.6200   34.1750  -13.9410 O.co2   4  ASP4       -0.5491
    112 N          12.5720   31.5300  -11.5510 N.am    5  GLY5       -0.1940
    113 CA         12.2330   30.1540  -11.8780 C.3     5  GLY5        0.2014
    114 C          11.1810   29.5570  -10.9510 C.2     5  GLY5        0.2640
    115 O          10.2710   28.8580  -11.4000 O.2     5  GLY5       -0.2714
    116 N          11.3070   29.8280   -9.6520 N.am    6  SER6       -0.1935
    117 CA         10.3670   29.2970   -8.6630 C.3     6  SER6        0.2055
    118 C           9.0190   29.9760   -8.7820 C.2     6  SER6        0.2643
    119 O           7.9750   29.3320   -8.7170 O.2     6  SER6       -0.2714
    120 CB         10.9100   29.4930   -7.2520 C.3     6  SER6        0.2130
    121 OG         12.0480   28.6790   -7.0170 O.3     6  SER6       -0.2179
    122 N           9.0530   31.2900   -8.9510 N.am    7  PHE7       -0.1973
    123 CA          7.8400   32.0690   -9.1030 C.3     7  PHE7        0.1639
    124 C           6.9220   31.5100  -10.1900 C.2     7  PHE7        0.2290
    125 O           5.7030   31.5340  -10.0470 O.2     7  PHE7       -0.2864
    126 CB          8.2030   33.5180   -9.4020 C.3     7  PHE7        0.0560
    127 CG          7.0360   34.4570   -9.3750 C.ar    7  PHE7       -0.0200
    128 CD2         6.5290   34.9080   -8.1760 C.ar    7  PHE7       -0.0042
    129 CD1         6.4540   34.9030  -10.5550 C.ar    7  PHE7       -0.0042
    130 CE2         5.4600   35.7810   -8.1410 C.ar    7  PHE7       -0.0003
    131 CE1         5.3750   35.7840  -10.5310 C.ar    7  PHE7       -0.0003
    132 CZ          4.8810   36.2260   -9.3190 C.ar    7  PHE7       -0.0000
    133 N          13.6530   37.8610   -7.8550 N.3     1  ILE1       -0.1231
    134 CA         15.0150   37.9290   -8.3560 C.3     1  ILE1        0.1692
    135 C          15.0690   37.3900   -9.7860 C.2     1  ILE1        0.2592
    136 O          15.0320   36.1750   -9.9960 O.2     1  ILE1       -0.2718
    137 CB         15.9630   37.1050   -7.4880 C.3     1  ILE1        0.0266
    138 CG1        15.7150   37.3790   -5.9970 C.3     1  ILE1        0.0019
    139 CG2        17.3940   37.3830   -7.8850 C.3     1  ILE1        0.0020
    140 CD1        15.8400   38.8340   -5.5890 C.3     1  ILE1        0.0001
    141 N          15.1450   38.2860  -10.7670 N.am    2  ASN2       -0.1960
    142 CA         15.1650   37.8810  -12.1700 C.3     2  ASN2        0.1819
    143 C          16.5870   37.7770  -12.6900 C.2     2  ASN2        0.2621
    144 O          17.1470   38.7500  -13.1800 O.2     2  ASN2       -0.2715
    145 CB         14.3560   38.8630  -13.0240 C.3     2  ASN2        0.1195
    146 CG         14.1020   38.3460  -14.4420 C.2     2  ASN2        0.2630
    147 OD1        14.6110   37.2970  -14.8350 O.2     2  ASN2       -0.2716
    148 ND2        13.3090   39.0840  -15.2090 N.am    2  ASN2       -0.0877
    149 N          17.1770   36.5980  -12.5510 N.am    3  ASN3       -0.1972
    150 CA         18.4990   36.3390  -13.0950 C.3     3  ASN3        0.1688
    151 C          18.3750   35.4060  -14.3080 C.2     3  ASN3        0.2292
    152 O          19.3250   34.7260  -14.7050 O.2     3  ASN3       -0.2864
    153 CB         19.4020   35.7330  -12.0260 C.3     3  ASN3        0.1181
    154 CG         18.8030   34.4990  -11.4170 C.2     3  ASN3        0.2629
    155 OD1        17.7740   34.0200  -11.8930 O.2     3  ASN3       -0.2716
    156 ND2        19.4260   33.9730  -10.3630 N.am    3  ASN3       -0.0877
    157 N          16.7510   32.4230  -15.1040 N.3     1  GLY1       -0.1210
    158 CA         16.9690   30.9860  -15.0580 C.3     1  GLY1        0.1956
    159 C          17.1590   30.3760  -13.6810 C.2     1  GLY1        0.2612
    160 O          17.0410   31.0520  -12.6530 O.2     1  GLY1       -0.2717
    161 N          17.4580   29.0790  -13.6690 N.am    2  TYR2       -0.1962
    162 CA         17.6530   28.3210  -12.4310 C.3     2  TYR2        0.1771
    163 C          19.1060   28.3780  -11.9080 C.2     2  TYR2        0.2620
    164 O          19.8540   27.4100  -12.0720 O.2     2  TYR2       -0.2715
    165 CB         17.3200   26.8460  -12.6770 C.3     2  TYR2        0.0574
    166 CG         15.9150   26.5300  -13.1310 C.ar    2  TYR2       -0.0198
    167 CD2        14.8420   27.3320  -12.7680 C.ar    2  TYR2       -0.0009
    168 CD1        15.6540   25.3820  -13.8750 C.ar    2  TYR2       -0.0009
    169 CE2        13.5430   27.0160  -13.1580 C.ar    2  TYR2        0.0417
    170 CE1        14.3650   25.0580  -14.2710 C.ar    2  TYR2        0.0417
    171 CZ         13.3070   25.8780  -13.9100 C.ar    2  TYR2        0.1957
    172 OH         12.0080   25.5800  -14.2990 O.3     2  TYR2       -0.2866
    173 N          19.5050   29.4730  -11.2610 N.am    3  THR3       -0.1937
    174 CA         20.9160   29.6330  -10.8630 C.3     3  THR3        0.2028
    175 C          21.4270   28.5760   -9.8700 C.2     3  THR3        0.2642
    176 O          22.5410   28.0770  -10.0170 O.2     3  THR3       -0.2714
    177 CB         21.2320   31.0670  -10.3470 C.3     3  THR3        0.1808
    178 OG1        21.1970   31.9900  -11.4410 O.3     3  THR3       -0.2208
    179 CG2        22.6130   31.1340   -9.6940 C.3     3  THR3        0.0379
    180 N          20.6310   28.2350   -8.8590 N.am    4  ILE4       -0.1963
    181 CA         21.0390   27.1890   -7.9160 C.3     4  ILE4        0.1727
    182 C          21.3560   25.8770   -8.6370 C.2     4  ILE4        0.2616
    183 O          22.3040   25.1660   -8.2710 O.2     4  ILE4       -0.2715
    184 CB         19.9640   26.9410   -6.8040 C.3     4  ILE4        0.0290
    185 CG1        20.4420   25.8780   -5.8010 C.3     4  ILE4        0.0022
    186 CG2        18.6030   26.5560   -7.4070 C.3     4  ILE4        0.0023
    187 CD1        19.5800   25.7840   -4.5610 C.3     4  ILE4        0.0001
    188 N          20.5450   25.5760   -9.6570 N.am    5  GLU5       -0.1977
    189 CA         20.6790   24.3740  -10.4790 C.3     5  GLU5        0.1600
    190 C          21.9280   24.4720  -11.3460 C.2     5  GLU5        0.2287
    191 O          22.6670   23.4980  -11.5000 O.2     5  GLU5       -0.2864
    192 CB         19.4390   24.2100  -11.3670 C.3     5  GLU5        0.0356
    193 CG         18.8850   22.7910  -11.4340 C.3     5  GLU5        0.0439
    194 CD         18.3440   22.3180  -10.0920 C.2     5  GLU5        0.0504
    195 OE1        17.2610   21.7090  -10.0790 O.co2   5  GLU5       -0.5492
    196 OE2        18.9990   22.5590   -9.0500 O.co2   5  GLU5       -0.5492
    197 N          18.1740   24.3650  -17.5550 N.3     1  ASN1       -0.1240
    198 CA         18.2280   25.4160  -16.5400 C.3     1  ASN1        0.1653
    199 C          17.7240   26.7580  -17.0710 C.2     1  ASN1        0.2266
    200 O          17.6230   27.7440  -16.3250 O.2     1  ASN1       -0.2867
    201 CB         19.6460   25.5620  -15.9540 C.3     1  ASN1        0.1155
    202 CG         20.0380   24.3940  -15.0780 C.2     1  ASN1        0.2627
    203 OD1        19.1790   23.7120  -14.5070 O.2     1  ASN1       -0.2716
    204 ND2        21.3360   24.1520  -14.9680 N.am    1  ASN1       -0.0877
    205 N          13.7810   42.4470   -9.6610 N.3     1  CYS1       -0.1235
    206 CA         15.1950   42.8200   -9.5910 C.3     1  CYS1        0.1677
    207 C          16.0060   42.1040  -10.6530 C.2     1  CYS1        0.2270
    208 O          15.9410   40.8780  -10.7540 O.2     1  CYS1       -0.2867
    209 CB         15.7560   42.4750   -8.2200 C.3     1  CYS1        0.0956
    210 SG         14.7760   43.1420   -6.8710 S.3     1  CYS1       -0.0801
    211 N          19.4660   40.8790  -12.1040 N.3     1  ILE1       -0.1231
    212 CA         20.8870   40.5840  -11.9100 C.3     1  ILE1        0.1692
    213 C          21.3060   39.4620  -12.8470 C.2     1  ILE1        0.2593
    214 O          20.4590   38.7650  -13.3910 O.2     1  ILE1       -0.2718
    215 CB         21.2410   40.1980  -10.4430 C.3     1  ILE1        0.0266
    216 CG1        20.5250   38.9170  -10.0240 C.3     1  ILE1        0.0019
    217 CG2        20.9120   41.3290   -9.4870 C.3     1  ILE1        0.0020
    218 CD1        20.8620   38.4630   -8.6290 C.3     1  ILE1        0.0001
    219 N          22.6000   39.3030  -13.0310 N.am    2  GLY2       -0.1942
    220 CA         23.1390   38.2670  -13.8750 C.3     2  GLY2        0.2014
    221 C          23.0450   36.8710  -13.2990 C.2     2  GLY2        0.2639
    222 O          22.9590   36.6780  -12.1150 O.2     2  GLY2       -0.2714
    223 N          23.0800   35.8830  -14.1640 N.am    3  ARG3       -0.1963
    224 CA         22.9780   34.5280  -13.7130 C.3     3  ARG3        0.1729
    225 C          24.1110   34.1440  -12.8160 C.2     3  ARG3        0.2616
    226 O          23.9080   33.4730  -11.8300 O.2     3  ARG3       -0.2715
    227 CB         22.9510   33.5620  -14.8810 C.3     3  ARG3        0.0348
    228 CG         23.4000   32.1800  -14.4940 C.3     3  ARG3        0.0492
    229 CD         23.1360   31.1560  -15.5680 C.3     3  ARG3        0.2205
    230 NE         21.7360   31.1060  -15.9390 N.pl3   3  ARG3       -0.0865
    231 CZ         21.2090   30.2630  -16.8030 C.cat   3  ARG3        0.5346
    232 NH2        19.9230   30.3070  -17.0080 N.pl3   3  ARG3        0.1354
    233 NH1        21.9590   29.6310  -17.6680 N.pl3   3  ARG3        0.1354
    234 N          25.3160   34.5560  -13.1570 N.am    4  GLU4       -0.1963
    235 CA         26.4670   34.1350  -12.3970 C.3     4  GLU4        0.1731
    236 C          26.6360   34.9120  -11.1400 C.2     4  GLU4        0.2616
    237 O          27.4590   34.5870  -10.3230 O.2     4  GLU4       -0.2715
    238 CB         27.7300   34.1750  -13.2350 C.3     4  GLU4        0.0370
    239 CG         27.9660   32.9200  -14.0270 C.3     4  GLU4        0.0440
    240 CD         27.2480   32.9410  -15.3360 C.2     4  GLU4        0.0504
    241 OE2        27.0030   34.0390  -15.8390 O.co2   4  GLU4       -0.5492
    242 OE1        26.9220   31.8790  -15.8770 O.co2   4  GLU4       -0.5492
    243 N          25.8450   35.9550  -11.0090 N.am    5  ASP5       -0.1959
    244 CA         25.9400   36.8660   -9.8650 C.3     5  ASP5        0.1783
    245 C          25.1970   36.3380   -8.6260 C.2     5  ASP5        0.2620
    246 O          24.1000   36.7960   -8.2900 O.2     5  ASP5       -0.2715
    247 CB         25.4380   38.2620  -10.2450 C.3     5  ASP5        0.0728
    248 CG         25.5640   39.2590   -9.1030 C.2     5  ASP5        0.0526
    249 OD2        26.4260   39.0500   -8.2180 O.co2   5  ASP5       -0.5491
    250 OD1        24.7990   40.2500   -9.0900 O.co2   5  ASP5       -0.5491
    251 N          25.8120   35.3750   -7.9510 N.am    6  CYS6       -0.1954
    252 CA         25.1950   34.7150   -6.8160 C.3     6  CYS6        0.1843
    253 C          26.1680   34.6920   -5.6420 C.2     6  CYS6        0.2626
    254 O          27.3180   35.0780   -5.7790 O.2     6  CYS6       -0.2714
    255 CB         24.8010   33.2920   -7.1960 C.3     6  CYS6        0.0997
    256 SG         26.2190   32.2590   -7.5860 S.3     6  CYS6       -0.0797
    257 N          25.7010   34.2360   -4.4900 N.am    7  THR7       -0.1950
    258 CA         26.5350   34.1720   -3.2970 C.3     7  THR7        0.1897
    259 C          27.7070   33.2080   -3.4810 C.2     7  THR7        0.2313
    260 O          27.6270   32.2620   -4.2550 O.2     7  THR7       -0.2863
    261 CB         25.7110   33.7370   -2.0660 C.3     7  THR7        0.1794
    262 OG1        25.2060   32.4120   -2.2690 O.3     7  THR7       -0.2208
    263 CG2        24.5410   34.6830   -1.8470 C.3     7  THR7        0.0378
    264 N          26.6160   29.5870   -2.2100 N.3     1  LEU1       -0.1245
    265 CA         25.8800   28.7210   -3.1190 C.3     1  LEU1        0.1561
    266 C          26.8400   27.9320   -4.0000 C.2     1  LEU1        0.2260
    267 O          26.6780   26.7360   -4.2030 O.2     1  LEU1       -0.2867
    268 CB         24.9120   29.5290   -3.9870 C.3     1  LEU1        0.0270
    269 CG         24.3400   28.8020   -5.2090 C.3     1  LEU1        0.0019
    270 CD2        23.5360   27.5810   -4.7930 C.3     1  LEU1        0.0001
    271 CD1        23.4790   29.7460   -5.9980 C.3     1  LEU1        0.0001
@<TRIPOS>UNITY_ATOM_ATTR
24 1
charge -1
43 1
charge -1
110 1
charge -1
195 1
charge -1
241 1
charge -1
249 1
charge -1
@<TRIPOS>BOND
     1     1     2    1
     2     2     5    1
     3     2     3    1
     4     3     4    2
     5     5     6    1
     6     6     7    2
     7     6     8   am
     8     9    10    1
     9    10    13    1
    10    10    11    1
    11    11    12    2
    12    13    14    1
    13    13    15    1
    14    14    16    1
    15    17    18    1
    16    18    21    1
    17    18    19    1
    18    19    26   am
    19    19    20    2
    20    21    22    1
    21    22    23    1
    22    23    25   ar
    23    23    24   ar
    24    26    27    1
    25    27    28    1
    26    27    30    1
    27    28    29    2
    28    28    33   am
    29    30    32    1
    30    30    31    1
    31    33    34    1
    32    34    35    1
    33    35    37   am
    34    35    36    2
    35    37    38    1
    36    38    41    1
    37    38    39    1
    38    39    45   am
    39    39    40    2
    40    41    42    1
    41    42    44   ar
    42    42    43   ar
    43    45    46    1
    44    46    49    1
    45    46    47    1
    46    47    51   am
    47    47    48    2
    48    49    50    1
    49    51    52    1
    50    52    55    1
    51    52    53    1
    52    53    54    2
    53    55    56    1
    54    56    58    2
    55    56    57    1
    56    57    59    1
    57    58    61   ar
    58    58    60   ar
    59    59    60    2
    60    60    62   ar
    61    61    63   ar
    62    62    64   ar
    63    63    64   ar
    64    65    66    1
    65    66    69    1
    66    66    67    1
    67    67    68    2
    68    69    70    1
    69    70    72   am
    70    70    71    2
    71    73    74    1
    72    74    75    1
    73    75    76    2
    74    77    78    1
    75    78    81    1
    76    78    79    1
    77    79    80    2
    78    81    82    1
    79    81    83    1
    80    82    84    1
    81    85    86    1
    82    86    87    1
    83    86    89    1
    84    87    93   am
    85    87    88    2
    86    89    90    1
    87    90    91    1
    88    91    92    1
    89    93    94    1
    90    94    95    1
    91    94    97    1
    92    95    96    2
    93    95   100   am
    94    97    99    1
    95    97    98    1
    96   100   101    1
    97   101   102    1
    98   102   104   am
    99   102   103    2
   100   104   105    1
   101   105   108    1
   102   105   106    1
   103   106   107    2
   104   106   112   am
   105   108   109    1
   106   109   111   ar
   107   109   110   ar
   108   112   113    1
   109   113   114    1
   110   114   115    2
   111   114   116   am
   112   116   117    1
   113   117   118    1
   114   117   120    1
   115   118   122   am
   116   118   119    2
   117   120   121    1
   118   122   123    1
   119   123   124    1
   120   123   126    1
   121   124   125    2
   122   126   127    1
   123   127   129   ar
   124   127   128   ar
   125   128   130   ar
   126   129   131   ar
   127   130   132   ar
   128   131   132   ar
   129   133   134    1
   130   134   135    1
   131   134   137    1
   132   135   141   am
   133   135   136    2
   134   137   139    1
   135   137   138    1
   136   138   140    1
   137   141   142    1
   138   142   145    1
   139   142   143    1
   140   143   144    2
   141   143   149   am
   142   145   146    1
   143   146   148   am
   144   146   147    2
   145   149   150    1
   146   150   151    1
   147   150   153    1
   148   151   152    2
   149   153   154    1
   150   154   155    2
   151   154   156   am
   152   157   158    1
   153   158   159    1
   154   159   161   am
   155   159   160    2
   156   161   162    1
   157   162   165    1
   158   162   163    1
   159   163   164    2
   160   163   173   am
   161   165   166    1
   162   166   168   ar
   163   166   167   ar
   164   167   169   ar
   165   168   170   ar
   166   169   171   ar
   167   170   171   ar
   168   171   172    1
   169   173   174    1
   170   174   177    1
   171   174   175    1
   172   175   176    2
   173   175   180   am
   174   177   178    1
   175   177   179    1
   176   180   181    1
   177   181   182    1
   178   181   184    1
   179   182   188   am
   180   182   183    2
   181   184   186    1
   182   184   185    1
   183   185   187    1
   184   188   189    1
   185   189   192    1
   186   189   190    1
   187   190   191    2
   188   192   193    1
   189   193   194    1
   190   194   195   ar
   191   194   196   ar
   192   197   198    1
   193   198   199    1
   194   198   201    1
   195   199   200    2
   196   201   202    1
   197   202   204   am
   198   202   203    2
   199   205   206    1
   200   206   207    1
   201   206   209    1
   202   207   208    2
   203   209   210    1
   204   211   212    1
   205   212   213    1
   206   212   215    1
   207   213   214    2
   208   213   219   am
   209   215   216    1
   210   215   217    1
   211   216   218    1
   212   219   220    1
   213   220   221    1
   214   221   223   am
   215   221   222    2
   216   223   224    1
   217   224   227    1
   218   224   225    1
   219   225   234   am
   220   225   226    2
   221   227   228    1
   222   228   229    1
   223   229   230    1
   224   230   231    2
   225   231   233    1
   226   231   232    1
   227   234   235    1
   228   235   238    1
   229   235   236    1
   230   236   243   am
   231   236   237    2
   232   238   239    1
   233   239   240    1
   234   240   242   ar
   235   240   241   ar
   236   243   244    1
   237   244   247    1
   238   244   245    1
   239   245   246    2
   240   245   251   am
   241   247   248    1
   242   248   250   ar
   243   248   249   ar
   244   251   252    1
   245   252   255    1
   246   252   253    1
   247   253   254    2
   248   253   257   am
   249   255   256    1
   250   257   258    1
   251   258   259    1
   252   258   261    1
   253   259   260    2
   254   261   262    1
   255   261   263    1
   256   264   265    1
   257   265   266    1
   258   265   268    1
   259   266   267    2
   260   268   269    1
   261   269   271    1
   262   269   270    1
