@<TRIPOS>MOLECULE
./1goq/protein.pdb
 297 297 0 0 0
SMALL
GASTEIGER

@<TRIPOS>ATOM
      1 N          11.7650    8.5920   12.4240 N.3     1  ARG1       -0.1245
      2 CA         11.2490    8.4430   13.7770 C.3     1  ARG1        0.1563
      3 C          12.2070    7.5840   14.5860 C.2     1  ARG1        0.2260
      4 O          12.4790    7.8540   15.7510 O.2     1  ARG1       -0.2867
      5 CB          9.8860    7.7500   13.7360 C.3     1  ARG1        0.0307
      6 CG          8.7140    8.6200   14.1260 C.3     1  ARG1        0.0489
      7 CD          8.8350   10.0100   13.5500 C.3     1  ARG1        0.2205
      8 NE          7.6140   10.4350   12.8720 N.pl3   1  ARG1       -0.0865
      9 CZ          7.2780   11.7060   12.6810 C.cat   1  ARG1        0.5346
     10 NH2         8.0720   12.6750   13.1170 N.pl3   1  ARG1        0.1354
     11 NH1         6.1530   12.0110   12.0530 N.pl3   1  ARG1        0.1354
     12 N           5.5140    0.7200    8.1010 N.3     1  PRO1       -0.2102
     13 CA          6.1270    1.9240    7.5340 C.3     1  PRO1        0.1504
     14 C           5.0420    2.9760    7.3310 C.2     1  PRO1        0.2576
     15 O           4.0770    2.7480    6.6110 O.2     1  PRO1       -0.2718
     16 CB          6.7020    1.4470    6.2000 C.3     1  PRO1        0.0282
     17 CG          5.9750    0.1700    5.9010 C.3     1  PRO1        0.0208
     18 CD          5.7090   -0.4510    7.2330 C.3     1  PRO1        0.0893
     19 N           5.1930    4.1240    7.9750 N.am    2  GLU2       -0.1966
     20 CA          4.2020    5.1750    7.8450 C.3     2  GLU2        0.1731
     21 C           4.1400    5.7410    6.4300 C.2     2  GLU2        0.2616
     22 O           3.0470    6.0530    5.9330 O.2     2  GLU2       -0.2715
     23 CB          4.5010    6.3020    8.8300 C.3     2  GLU2        0.0370
     24 CG          3.2780    6.8730    9.4980 C.3     2  GLU2        0.0440
     25 CD          3.6100    8.0340   10.4060 C.2     2  GLU2        0.0504
     26 OE1         2.8840    9.0520   10.3570 O.co2   2  GLU2       -0.5492
     27 OE2         4.5990    7.9240   11.1650 O.co2   2  GLU2       -0.5492
     28 N           5.2940    5.8570    5.7710 N.am    3  ASN3       -0.1972
     29 CA          5.3360    6.4370    4.4260 C.3     3  ASN3        0.1688
     30 C           6.3360    5.8360    3.4370 C.2     3  ASN3        0.2292
     31 O           6.1530    5.9670    2.2340 O.2     3  ASN3       -0.2864
     32 CB          5.6480    7.9400    4.5110 C.3     3  ASN3        0.1181
     33 CG          4.5310    8.7440    5.1410 C.2     3  ASN3        0.2629
     34 OD1         3.4820    8.9430    4.5400 O.2     3  ASN3       -0.2716
     35 ND2         4.7580    9.2210    6.3590 N.am    3  ASN3       -0.0877
     36 N           6.9300    2.9950    2.1180 N.3     1  MET1       -0.1230
     37 CA          6.5670    1.9640    1.1450 C.3     1  MET1        0.1702
     38 C           5.4350    2.3820    0.1930 C.2     1  MET1        0.2592
     39 O           4.9950    1.6080   -0.6520 O.2     1  MET1       -0.2718
     40 CB          6.1870    0.6750    1.8770 C.3     1  MET1        0.0401
     41 CG          7.3820   -0.1120    2.3910 C.3     1  MET1        0.0596
     42 SD          6.8940   -1.7600    2.9470 S.3     1  MET1       -0.1393
     43 CE          8.4580   -2.4150    3.4880 C.3     1  MET1        0.0692
     44 N           4.9680    3.6150    0.3360 N.am    2  LYS2       -0.1966
     45 CA          3.9070    4.1100   -0.5280 C.3     2  LYS2        0.1728
     46 C           4.4650    4.3460   -1.9310 C.2     2  LYS2        0.2616
     47 O           5.6800    4.4030   -2.1190 O.2     2  LYS2       -0.2715
     48 CB          3.3160    5.3900    0.0650 C.3     2  LYS2        0.0311
     49 CG          2.4420    5.1080    1.2840 C.3     2  LYS2        0.0038
     50 CD          2.1360    6.3500    2.1060 C.3     2  LYS2        0.0206
     51 CE          1.2400    6.0100    3.2890 C.3     2  LYS2        0.1093
     52 NZ          0.9160    7.2140    4.1160 N.3     2  LYS2       -0.1314
     53 N           3.5740    4.4720   -2.9100 N.am    3  TRP3       -0.1960
     54 CA          3.9510    4.6650   -4.3100 C.3     3  TRP3        0.1768
     55 C           4.8290    5.8930   -4.5910 C.2     3  TRP3        0.2619
     56 O           5.7930    5.8070   -5.3570 O.2     3  TRP3       -0.2715
     57 CB          2.6830    4.7310   -5.1780 C.3     3  TRP3        0.0553
     58 CG          2.8360    4.1810   -6.5690 C.2     3  TRP3       -0.0136
     59 CD1         3.8140    4.4820   -7.4690 C.2     3  TRP3        0.0907
     60 CD2         1.9490    3.2730   -7.2330 C.3     3  TRP3        0.0819
     61 NE1         3.5920    3.8220   -8.6560 N.2     3  TRP3       -0.2482
     62 CE2         2.4460    3.0690   -8.5380 C.2     3  TRP3        0.0665
     63 CE3         0.7720    2.6090   -6.8520 C.2     3  TRP3       -0.0164
     64 CZ2         1.8170    2.2310   -9.4710 C.2     3  TRP3        0.0153
     65 CZ3         0.1400    1.7730   -7.7770 C.2     3  TRP3       -0.0038
     66 CH2         0.6680    1.5950   -9.0720 C.2     3  TRP3        0.0009
     67 N           4.5160    7.0320   -3.9800 N.am    4  ASP4       -0.1973
     68 CA          5.3140    8.2210   -4.2470 C.3     4  ASP4        0.1651
     69 C           6.7610    8.0460   -3.7980 C.2     4  ASP4        0.2291
     70 O           7.6780    8.5540   -4.4340 O.2     4  ASP4       -0.2864
     71 CB          4.6880    9.4700   -3.6010 C.3     4  ASP4        0.0714
     72 CG          4.4630    9.3210   -2.1060 C.2     4  ASP4        0.0525
     73 OD1         4.7380    8.2390   -1.5530 O.co2   4  ASP4       -0.5491
     74 OD2         4.0050   10.3030   -1.4790 O.co2   4  ASP4       -0.5491
     75 N           2.8640   -1.4910    3.7890 N.3     1  HIS1       -0.1226
     76 CA          1.8130   -0.4930    3.6020 C.3     1  HIS1        0.1752
     77 C           2.2750    0.6660    2.7170 C.2     1  HIS1        0.2597
     78 O           3.2630    1.3200    3.0430 O.2     1  HIS1       -0.2718
     79 CB          1.4150    0.0350    4.9880 C.3     1  HIS1        0.0759
     80 CG          0.3930    1.1300    4.9640 C.ar    1  HIS1        0.0818
     81 ND1        -0.9640    0.8860    5.0120 N.ar    1  HIS1       -0.2268
     82 CD2         0.5330    2.4770    4.9530 C.ar    1  HIS1        0.1154
     83 CE1        -1.6150    2.0370    5.0310 C.ar    1  HIS1        0.1986
     84 NE2        -0.7300    3.0160    4.9970 N.ar    1  HIS1       -0.2212
     85 N           1.6070    0.9120    1.5870 N.am    2  THR2       -0.1939
     86 CA          0.4690    0.1390    1.0870 C.3     2  THR2        0.2028
     87 C           0.6490    0.1150   -0.4410 C.2     2  THR2        0.2642
     88 O           1.1700    1.0660   -1.0200 O.2     2  THR2       -0.2714
     89 CB         -0.8870    0.7910    1.4480 C.3     2  THR2        0.1808
     90 OG1        -1.9260    0.1690    0.6840 O.3     2  THR2       -0.2208
     91 CG2        -0.8820    2.2780    1.1520 C.3     2  THR2        0.0379
     92 N           0.2210   -0.9580   -1.0960 N.am    3  LEU3       -0.1963
     93 CA          0.4280   -1.0800   -2.5350 C.3     3  LEU3        0.1728
     94 C          -0.4210   -0.2200   -3.4830 C.2     3  LEU3        0.2616
     95 O           0.1170    0.6260   -4.2000 O.2     3  LEU3       -0.2715
     96 CB          0.3280   -2.5550   -2.9350 C.3     3  LEU3        0.0311
     97 CG          1.3920   -3.4650   -2.3010 C.3     3  LEU3        0.0022
     98 CD1         1.1550   -4.9090   -2.7260 C.3     3  LEU3        0.0001
     99 CD2         2.7940   -2.9960   -2.7170 C.3     3  LEU3        0.0001
    100 N          -1.7320   -0.4390   -3.5040 N.am    4  VAL4       -0.1963
    101 CA         -2.6090    0.3260   -4.3900 C.3     4  VAL4        0.1727
    102 C          -3.4170    1.3320   -3.5690 C.2     4  VAL4        0.2616
    103 O          -4.1820    0.9590   -2.6710 O.2     4  VAL4       -0.2715
    104 CB         -3.5780   -0.6130   -5.1710 C.3     4  VAL4        0.0290
    105 CG1        -4.4390    0.1980   -6.1550 C.3     4  VAL4        0.0023
    106 CG2        -2.7770   -1.6700   -5.9140 C.3     4  VAL4        0.0023
    107 N          -3.2390    2.6090   -3.8860 N.am    5  TRP5       -0.1960
    108 CA         -3.9250    3.6830   -3.1750 C.3     5  TRP5        0.1768
    109 C          -4.0270    4.8690   -4.1150 C.2     5  TRP5        0.2619
    110 O          -3.1140    5.1110   -4.9040 O.2     5  TRP5       -0.2715
    111 CB         -3.1070    4.0840   -1.9530 C.3     5  TRP5        0.0553
    112 CG         -3.8180    4.9570   -0.9640 C.2     5  TRP5       -0.0136
    113 CD1        -5.1610    5.0180   -0.7280 C.2     5  TRP5        0.0907
    114 CD2        -3.2020    5.8410   -0.0200 C.3     5  TRP5        0.0819
    115 NE1        -5.4220    5.8850    0.3120 N.2     5  TRP5       -0.2482
    116 CE2        -4.2390    6.4020    0.7630 C.2     5  TRP5        0.0665
    117 CE3        -1.8730    6.2100    0.2400 C.2     5  TRP5       -0.0164
    118 CZ2        -3.9880    7.3160    1.7930 C.2     5  TRP5        0.0153
    119 CZ3        -1.6220    7.1190    1.2640 C.2     5  TRP5       -0.0038
    120 CH2        -2.6780    7.6610    2.0290 C.2     5  TRP5        0.0009
    121 N          -5.1240    5.6130   -4.0320 N.am    6  HIS6       -0.1959
    122 CA         -5.3000    6.7630   -4.9080 C.3     6  HIS6        0.1787
    123 C          -4.5250    7.9920   -4.3970 C.2     6  HIS6        0.2621
    124 O          -4.1930    8.8860   -5.1690 O.2     6  HIS6       -0.2715
    125 CB         -6.7880    7.0920   -5.0510 C.3     6  HIS6        0.0785
    126 CG         -7.4330    7.5380   -3.7760 C.ar    6  HIS6        0.0821
    127 ND1        -7.7830    6.6650   -2.7740 N.ar    6  HIS6       -0.2267
    128 CD2        -7.7490    8.7780   -3.3260 C.ar    6  HIS6        0.1154
    129 CE1        -8.2850    7.3430   -1.7540 C.ar    6  HIS6        0.1986
    130 NE2        -8.2740    8.6260   -2.0670 N.ar    6  HIS6       -0.2212
    131 N          -4.2400    8.0220   -3.0970 N.am    7  SER7       -0.1936
    132 CA         -3.5010    9.1270   -2.4880 C.3     7  SER7        0.2055
    133 C          -1.9870    8.9140   -2.6330 C.2     7  SER7        0.2643
    134 O          -1.5400    7.7960   -2.8990 O.2     7  SER7       -0.2714
    135 CB         -3.8570    9.2340   -1.0060 C.3     7  SER7        0.2130
    136 OG         -5.1660    9.7430   -0.8340 O.3     7  SER7       -0.2179
    137 N          -1.2120    9.9840   -2.4430 N.am    8  GLN8       -0.1963
    138 CA          0.2500    9.9350   -2.5530 C.3     8  GLN8        0.1733
    139 C           0.6720    9.0950   -3.7650 C.2     8  GLN8        0.2616
    140 O           1.5220    8.1960   -3.6790 O.2     8  GLN8       -0.2715
    141 CB          0.8620    9.3660   -1.2620 C.3     8  GLN8        0.0408
    142 CG          0.6020   10.2470   -0.0440 C.3     8  GLN8        0.0908
    143 CD          1.2830    9.7530    1.2170 C.2     8  GLN8        0.2608
    144 OE1         0.6180    9.4520    2.2220 O.2     8  GLN8       -0.2717
    145 NE2         2.6150    9.6720    1.1810 N.am    8  GLN8       -0.0878
    146 N           0.0720    9.4080   -4.9070 N.am    9  LEU9       -0.1977
    147 CA          0.3430    8.6800   -6.1380 C.3     9  LEU9        0.1596
    148 C           1.0500    9.5650   -7.1580 C.2     9  LEU9        0.2287
    149 O           0.5950   10.6640   -7.4640 O.2     9  LEU9       -0.2864
    150 CB         -0.9790    8.1590   -6.7140 C.3     9  LEU9        0.0297
    151 CG         -0.9960    7.1690   -7.8850 C.3     9  LEU9        0.0022
    152 CD2        -0.5710    5.7810   -7.4210 C.3     9  LEU9        0.0001
    153 CD1        -2.4020    7.1070   -8.4440 C.3     9  LEU9        0.0001
    154 N           4.3080   -2.7120  -10.1030 N.3     1  HIS1       -0.1241
    155 CA          4.5430   -2.0580   -8.8210 C.3     1  HIS1        0.1618
    156 C           4.3650   -3.0380   -7.6590 C.2     1  HIS1        0.2264
    157 O           5.2100   -3.1170   -6.7620 O.2     1  HIS1       -0.2867
    158 CB          3.6030   -0.8680   -8.6320 C.3     1  HIS1        0.0704
    159 CG          3.9280   -0.0400   -7.4330 C.2     1  HIS1        0.0649
    160 ND1         4.9570    0.8790   -7.4180 N.2     1  HIS1       -0.2310
    161 CD2         3.3890   -0.0170   -6.1880 C.3     1  HIS1        0.1683
    162 CE1         5.0390    1.4290   -6.2200 C.2     1  HIS1        0.1939
    163 NE2         4.0970    0.9020   -5.4540 N.2     1  HIS1       -0.2440
    164 N          -5.8530    0.0410   -0.5450 N.3     1  ASN1       -0.1225
    165 CA         -6.1900    0.9400    0.5510 C.3     1  ASN1        0.1785
    166 C          -7.2910    1.9420    0.1530 C.2     1  ASN1        0.2597
    167 O          -7.2200    2.5670   -0.9120 O.2     1  ASN1       -0.2718
    168 CB         -4.9220    1.6950    0.9780 C.3     1  ASN1        0.1169
    169 CG         -5.0310    2.3040    2.3590 C.2     1  ASN1        0.2627
    170 OD1        -5.4570    1.6530    3.3170 O.2     1  ASN1       -0.2716
    171 ND2        -4.6360    3.5640    2.4710 N.am    1  ASN1       -0.0877
    172 N          -8.3020    2.0790    1.0120 N.am    2  GLU2       -0.1979
    173 CA         -9.4040    3.0290    0.8030 C.3     2  GLU2        0.1600
    174 C         -10.1120    2.9470   -0.5540 C.2     2  GLU2        0.2287
    175 O         -10.2070    3.9430   -1.2720 O.2     2  GLU2       -0.2864
    176 CB         -8.8800    4.4550    1.0280 C.3     2  GLU2        0.0356
    177 CG         -8.0730    4.5740    2.3100 C.3     2  GLU2        0.0439
    178 CD         -7.7130    6.0000    2.6820 C.2     2  GLU2        0.0504
    179 OE1        -7.6730    6.8820    1.7960 O.co2   2  GLU2       -0.5492
    180 OE2        -7.4620    6.2260    3.8810 O.co2   2  GLU2       -0.5492
    181 N          -7.6440   -2.6230    3.1350 N.3     1  ASN1       -0.1240
    182 CA         -7.6800   -1.7180    4.2790 C.3     1  ASN1        0.1653
    183 C          -8.6000   -0.4970    4.0460 C.2     1  ASN1        0.2266
    184 O          -8.6760    0.0490    2.9420 O.2     1  ASN1       -0.2867
    185 CB         -6.2230   -1.2840    4.5610 C.3     1  ASN1        0.1155
    186 CG         -6.0320   -0.6320    5.9190 C.2     1  ASN1        0.2627
    187 OD1        -6.3280   -1.2180    6.9670 O.2     1  ASN1       -0.2716
    188 ND2        -5.5060    0.5910    5.9050 N.am    1  ASN1       -0.0877
    189 N         -11.0280    2.9220    6.3030 N.3     1  TYR1       -0.1227
    190 CA        -11.4010    3.6350    7.5150 C.3     1  TYR1        0.1736
    191 C         -12.9050    3.8280    7.5770 C.2     1  TYR1        0.2595
    192 O         -13.6230    3.5790    6.6040 O.2     1  TYR1       -0.2718
    193 CB        -10.7040    4.9980    7.5700 C.3     1  TYR1        0.0548
    194 CG        -11.0730    5.9260    6.4310 C.ar    1  TYR1       -0.0200
    195 CD1       -10.3070    5.9680    5.2620 C.ar    1  TYR1       -0.0009
    196 CD2       -12.1840    6.7630    6.5240 C.ar    1  TYR1       -0.0009
    197 CE1       -10.6390    6.8210    4.2150 C.ar    1  TYR1        0.0417
    198 CE2       -12.5290    7.6220    5.4820 C.ar    1  TYR1        0.0417
    199 CZ        -11.7520    7.6450    4.3320 C.ar    1  TYR1        0.1957
    200 OH        -12.0910    8.4940    3.3030 O.3     1  TYR1       -0.2866
    201 N         -13.3730    4.2760    8.7350 N.am    2  ASN2       -0.1974
    202 CA        -14.7910    4.5040    8.9700 C.3     2  ASN2        0.1688
    203 C         -15.5810    3.1890    8.9360 C.2     2  ASN2        0.2292
    204 O         -16.7300    3.1380    8.4870 O.2     2  ASN2       -0.2864
    205 CB        -15.3480    5.4950    7.9430 C.3     2  ASN2        0.1181
    206 CG        -15.1980    6.9420    8.3850 C.2     2  ASN2        0.2629
    207 OD1       -15.3480    7.8630    7.5800 O.2     2  ASN2       -0.2716
    208 ND2       -14.9010    7.1510    9.6660 N.am    2  ASN2       -0.0877
    209 N          -8.7470    0.6600    9.7660 N.3     1  GLN1       -0.1245
    210 CA         -7.8830    1.7470   10.2260 C.3     1  GLN1        0.1566
    211 C          -8.2030    2.1870   11.6600 C.2     1  GLN1        0.2260
    212 O          -7.3120    2.2890   12.5000 O.2     1  GLN1       -0.2867
    213 CB         -7.9770    2.9340    9.2600 C.3     1  GLN1        0.0367
    214 CG         -7.5690    2.5730    7.8310 C.3     1  GLN1        0.0905
    215 CD         -7.2650    3.7840    6.9630 C.2     1  GLN1        0.2608
    216 OE1        -7.2400    4.9220    7.4390 O.2     1  GLN1       -0.2717
    217 NE2        -7.0270    3.5410    5.6760 N.am    1  GLN1       -0.0878
    218 N          -9.5980    5.2270   12.9130 N.3     1  HIS1       -0.1241
    219 CA         -9.1780    6.5800   13.2460 C.3     1  HIS1        0.1621
    220 C         -10.4100    7.1390   13.9370 C.2     1  HIS1        0.2264
    221 O         -11.3150    7.6450   13.2860 O.2     1  HIS1       -0.2867
    222 CB         -8.8810    7.3710   11.9720 C.3     1  HIS1        0.0745
    223 CG         -7.6100    6.9640   11.2960 C.ar    1  HIS1        0.0817
    224 ND1        -6.3860    6.9950   11.9330 N.ar    1  HIS1       -0.2268
    225 CD2        -7.3710    6.4970   10.0470 C.ar    1  HIS1        0.1154
    226 CE1        -5.4520    6.5670   11.1060 C.ar    1  HIS1        0.1986
    227 NE2        -6.0220    6.2580    9.9530 N.ar    1  HIS1       -0.2212
    228 N          -4.6120    1.2020   11.9560 N.3     1  GLU1       -0.1245
    229 CA         -4.0540    2.5410   12.1210 C.3     1  GLU1        0.1565
    230 C          -4.7470    3.2670   13.2580 C.2     1  GLU1        0.2260
    231 O          -5.1430    4.4230   13.1400 O.2     1  GLU1       -0.2867
    232 CB         -4.2090    3.3240   10.8140 C.3     1  GLU1        0.0329
    233 CG         -3.8400    2.5230    9.5630 C.3     1  GLU1        0.0437
    234 CD         -3.8590    3.3590    8.2850 C.2     1  GLU1        0.0504
    235 OE2        -4.1570    4.5710    8.3520 O.co2   1  GLU1       -0.5492
    236 OE1        -3.5690    2.8000    7.2090 O.co2   1  GLU1       -0.5492
    237 N          -5.8220    5.3220   16.4510 N.3     1  ASP1       -0.1241
    238 CA         -5.4950    6.5360   17.1800 C.3     1  ASP1        0.1616
    239 C          -6.8550    7.1100   17.5520 C.2     1  ASP1        0.2264
    240 O          -7.8390    6.9060   16.8430 O.2     1  ASP1       -0.2867
    241 CB         -4.6140    7.5270   16.3850 C.3     1  ASP1        0.0687
    242 CG         -5.1280    7.8330   14.9940 C.2     1  ASP1        0.0522
    243 OD2        -6.3380    7.6820   14.7260 O.co2   1  ASP1       -0.5491
    244 OD1        -4.2930    8.2510   14.1600 O.co2   1  ASP1       -0.5491
    245 N          -1.2880    4.1120   15.2570 N.3     1  TRP1       -0.1241
    246 CA         -0.6420    4.9480   14.2490 C.3     1  TRP1        0.1602
    247 C           0.3910    5.9660   14.7460 C.2     1  TRP1        0.2264
    248 O           0.2060    7.1860   14.6000 O.2     1  TRP1       -0.2867
    249 CB         -1.7090    5.6630   13.4260 C.3     1  TRP1        0.0510
    250 CG         -1.3200    5.8510   12.0010 C.2     1  TRP1       -0.0168
    251 CD1        -1.3210    7.0230   11.3030 C.3     1  TRP1        0.1477
    252 CD2        -0.8680    4.8410   11.0930 C.ar    1  TRP1        0.0113
    253 NE1        -0.8950    6.8080   10.0110 N.2     1  TRP1       -0.2659
    254 CE2        -0.6090    5.4770    9.8550 C.ar    1  TRP1        0.0758
    255 CE3        -0.6530    3.4610   11.2030 C.ar    1  TRP1        0.0009
    256 CZ2        -0.1470    4.7770    8.7300 C.ar    1  TRP1        0.0187
    257 CZ3        -0.1930    2.7640   10.0840 C.ar    1  TRP1        0.0001
    258 CH2         0.0550    3.4270    8.8640 C.ar    1  TRP1        0.0015
    259 N           4.2140   13.5970   17.0560 N.3     1  ASP1       -0.1227
    260 CA          4.5450   13.0180   15.7540 C.3     1  ASP1        0.1748
    261 C           3.3450   12.3910   15.0530 C.2     1  ASP1        0.2597
    262 O           3.4800   11.7750   13.9970 O.2     1  ASP1       -0.2718
    263 CB          5.6410   11.9640   15.9040 C.3     1  ASP1        0.0701
    264 CG          6.9100   12.5330   16.4810 C.2     1  ASP1        0.0523
    265 OD1         7.2180   13.7120   16.2010 O.co2   1  ASP1       -0.5491
    266 OD2         7.5980   11.8000   17.2180 O.co2   1  ASP1       -0.5491
    267 N           2.1680   12.5480   15.6440 N.am    2  SER2       -0.1938
    268 CA          0.9600   11.9990   15.0520 C.3     2  SER2        0.2055
    269 C           0.4500   12.8850   13.9210 C.2     2  SER2        0.2643
    270 O           0.5600   14.1160   13.9650 O.2     2  SER2       -0.2714
    271 CB         -0.1330   11.8700   16.1010 C.3     2  SER2        0.2130
    272 OG         -1.3960   11.8550   15.4690 O.3     2  SER2       -0.2179
    273 N          -0.1240   12.2520   12.9060 N.am    3  TRP3       -0.1959
    274 CA         -0.6620   12.9960   11.7820 C.3     3  TRP3        0.1768
    275 C          -1.8790   13.7770   12.2580 C.2     3  TRP3        0.2619
    276 O          -2.4260   14.5960   11.5250 O.2     3  TRP3       -0.2715
    277 CB         -1.0390   12.0480   10.6400 C.3     3  TRP3        0.0551
    278 CG         -2.2660   11.2430   10.8890 C.2     3  TRP3       -0.0165
    279 CD1        -2.5800   10.5490   12.0220 C.3     3  TRP3        0.1477
    280 CD2        -3.3540   11.0490    9.9810 C.ar    3  TRP3        0.0113
    281 NE1        -3.8030    9.9340   11.8760 N.2     3  TRP3       -0.2659
    282 CE2        -4.3000   10.2260   10.6340 C.ar    3  TRP3        0.0758
    283 CE3        -3.6230   11.4930    8.6790 C.ar    3  TRP3        0.0009
    284 CZ2        -5.4980    9.8360   10.0260 C.ar    3  TRP3        0.0187
    285 CZ3        -4.8150   11.1050    8.0730 C.ar    3  TRP3        0.0001
    286 CH2        -5.7390   10.2840    8.7510 C.ar    3  TRP3        0.0015
    287 N          -2.2860   13.5120   13.4990 N.am    4  ARG4       -0.1977
    288 CA         -3.4220   14.1870   14.1340 C.3     4  ARG4        0.1597
    289 C          -2.9510   14.7310   15.4940 C.2     4  ARG4        0.2287
    290 O          -3.7040   14.7440   16.4730 O.2     4  ARG4       -0.2864
    291 CB         -4.5820   13.2080   14.3730 C.3     4  ARG4        0.0334
    292 CG         -5.2310   12.6300   13.1230 C.3     4  ARG4        0.0492
    293 CD         -6.1820   11.4800   13.4830 C.3     4  ARG4        0.2205
    294 NE         -7.4690   11.9710   13.9750 N.pl3   4  ARG4       -0.0865
    295 CZ         -8.3320   11.2590   14.7000 C.cat   4  ARG4        0.5346
    296 NH1        -8.0620   10.0010   15.0360 N.pl3   4  ARG4        0.1354
    297 NH2        -9.4770   11.8080   15.0900 N.pl3   4  ARG4        0.1354
@<TRIPOS>UNITY_ATOM_ATTR
26 1
charge -1
73 1
charge -1
179 1
charge -1
235 1
charge -1
243 1
charge -1
265 1
charge -1
@<TRIPOS>BOND
     1     1     2    1
     2     2     5    1
     3     2     3    1
     4     3     4    2
     5     5     6    1
     6     6     7    1
     7     7     8    1
     8     8     9    2
     9     9    11    1
    10     9    10    1
    11    12    18    1
    12    12    13    1
    13    13    16    1
    14    13    14    1
    15    14    15    2
    16    14    19   am
    17    16    17    1
    18    17    18    1
    19    19    20    1
    20    20    21    1
    21    20    23    1
    22    21    28   am
    23    21    22    2
    24    23    24    1
    25    24    25    1
    26    25    26   ar
    27    25    27   ar
    28    28    29    1
    29    29    30    1
    30    29    32    1
    31    30    31    2
    32    32    33    1
    33    33    34    2
    34    33    35   am
    35    36    37    1
    36    37    38    1
    37    37    40    1
    38    38    39    2
    39    38    44   am
    40    40    41    1
    41    41    42    1
    42    42    43    1
    43    44    45    1
    44    45    46    1
    45    45    48    1
    46    46    53   am
    47    46    47    2
    48    48    49    1
    49    49    50    1
    50    50    51    1
    51    51    52    1
    52    53    54    1
    53    54    57    1
    54    54    55    1
    55    55    56    2
    56    55    67   am
    57    57    58    1
    58    58    59    2
    59    58    60    1
    60    59    61    1
    61    60    62    1
    62    60    63    1
    63    61    62    2
    64    62    64    1
    65    63    65    2
    66    64    66    2
    67    65    66    1
    68    67    68    1
    69    68    69    1
    70    68    71    1
    71    69    70    2
    72    71    72    1
    73    72    73   ar
    74    72    74   ar
    75    75    76    1
    76    76    77    1
    77    76    79    1
    78    77    85   am
    79    77    78    2
    80    79    80    1
    81    80    82   ar
    82    80    81   ar
    83    81    83   ar
    84    82    84   ar
    85    83    84   ar
    86    85    86    1
    87    86    87    1
    88    86    89    1
    89    87    92   am
    90    87    88    2
    91    89    90    1
    92    89    91    1
    93    92    93    1
    94    93    94    1
    95    93    96    1
    96    94    95    2
    97    94   100   am
    98    96    97    1
    99    97    98    1
   100    97    99    1
   101   100   101    1
   102   101   104    1
   103   101   102    1
   104   102   107   am
   105   102   103    2
   106   104   105    1
   107   104   106    1
   108   107   108    1
   109   108   109    1
   110   108   111    1
   111   109   110    2
   112   109   121   am
   113   111   112    1
   114   112   113    2
   115   112   114    1
   116   113   115    1
   117   114   117    1
   118   114   116    1
   119   115   116    2
   120   116   118    1
   121   117   119    2
   122   118   120    2
   123   119   120    1
   124   121   122    1
   125   122   125    1
   126   122   123    1
   127   123   124    2
   128   123   131   am
   129   125   126    1
   130   126   128   ar
   131   126   127   ar
   132   127   129   ar
   133   128   130   ar
   134   129   130   ar
   135   131   132    1
   136   132   133    1
   137   132   135    1
   138   133   134    2
   139   133   137   am
   140   135   136    1
   141   137   138    1
   142   138   139    1
   143   138   141    1
   144   139   146   am
   145   139   140    2
   146   141   142    1
   147   142   143    1
   148   143   145   am
   149   143   144    2
   150   146   147    1
   151   147   148    1
   152   147   150    1
   153   148   149    2
   154   150   151    1
   155   151   153    1
   156   151   152    1
   157   154   155    1
   158   155   158    1
   159   155   156    1
   160   156   157    2
   161   158   159    1
   162   159   160    2
   163   159   161    1
   164   160   162    1
   165   161   163    1
   166   162   163    2
   167   164   165    1
   168   165   166    1
   169   165   168    1
   170   166   167    2
   171   166   172   am
   172   168   169    1
   173   169   171   am
   174   169   170    2
   175   172   173    1
   176   173   174    1
   177   173   176    1
   178   174   175    2
   179   176   177    1
   180   177   178    1
   181   178   179   ar
   182   178   180   ar
   183   181   182    1
   184   182   183    1
   185   182   185    1
   186   183   184    2
   187   185   186    1
   188   186   188   am
   189   186   187    2
   190   189   190    1
   191   190   193    1
   192   190   191    1
   193   191   192    2
   194   191   201   am
   195   193   194    1
   196   194   195   ar
   197   194   196   ar
   198   195   197   ar
   199   196   198   ar
   200   197   199   ar
   201   198   199   ar
   202   199   200    1
   203   201   202    1
   204   202   205    1
   205   202   203    1
   206   203   204    2
   207   205   206    1
   208   206   207    2
   209   206   208   am
   210   209   210    1
   211   210   213    1
   212   210   211    1
   213   211   212    2
   214   213   214    1
   215   214   215    1
   216   215   217   am
   217   215   216    2
   218   218   219    1
   219   219   222    1
   220   219   220    1
   221   220   221    2
   222   222   223    1
   223   223   225   ar
   224   223   224   ar
   225   224   226   ar
   226   225   227   ar
   227   226   227   ar
   228   228   229    1
   229   229   232    1
   230   229   230    1
   231   230   231    2
   232   232   233    1
   233   233   234    1
   234   234   236   ar
   235   234   235   ar
   236   237   238    1
   237   238   241    1
   238   238   239    1
   239   239   240    2
   240   241   242    1
   241   242   244   ar
   242   242   243   ar
   243   245   246    1
   244   246   249    1
   245   246   247    1
   246   247   248    2
   247   249   250    1
   248   250   252    2
   249   250   251    1
   250   251   253    1
   251   252   254   ar
   252   252   255   ar
   253   253   254    2
   254   254   256   ar
   255   255   257   ar
   256   256   258   ar
   257   257   258   ar
   258   259   260    1
   259   260   261    1
   260   260   263    1
   261   261   262    2
   262   261   267   am
   263   263   264    1
   264   264   265   ar
   265   264   266   ar
   266   267   268    1
   267   268   269    1
   268   268   271    1
   269   269   273   am
   270   269   270    2
   271   271   272    1
   272   273   274    1
   273   274   277    1
   274   274   275    1
   275   275   276    2
   276   275   287   am
   277   277   278    1
   278   278   280    2
   279   278   279    1
   280   279   281    1
   281   280   283   ar
   282   280   282   ar
   283   281   282    2
   284   282   284   ar
   285   283   285   ar
   286   284   286   ar
   287   285   286   ar
   288   287   288    1
   289   288   291    1
   290   288   289    1
   291   289   290    2
   292   291   292    1
   293   292   293    1
   294   293   294    1
   295   294   295    2
   296   295   296    1
   297   295   297    1
