@<TRIPOS>MOLECULE
./1m48/protein.pdb
 224 225 0 0 0
SMALL
GASTEIGER

@<TRIPOS>ATOM
      1 N          10.8510    6.2370    7.2130 N.3     1  LEU1       -0.1245
      2 CA         11.0390    6.9880    5.9870 C.3     1  LEU1        0.1561
      3 C          11.7810    6.1210    4.9770 C.2     1  LEU1        0.2260
      4 O          11.4850    6.1620    3.7930 O.2     1  LEU1       -0.2867
      5 CB         11.7800    8.3070    6.2320 C.3     1  LEU1        0.0270
      6 CG         11.0460    9.4050    7.0200 C.3     1  LEU1        0.0019
      7 CD2        11.9990   10.4640    7.5180 C.3     1  LEU1        0.0001
      8 CD1         9.9450   10.0400    6.1760 C.3     1  LEU1        0.0001
      9 N           7.0240   18.3100   -3.3130 N.3     1  PHE1       -0.1227
     10 CA          7.1240   18.5050   -1.8730 C.3     1  PHE1        0.1736
     11 C           7.9010   19.7740   -1.5340 C.2     1  PHE1        0.2595
     12 O           8.8320   20.1700   -2.2400 O.2     1  PHE1       -0.2718
     13 CB          7.7850   17.3030   -1.2150 C.3     1  PHE1        0.0547
     14 CG          6.9390   16.0580   -1.2270 C.ar    1  PHE1       -0.0202
     15 CD2         6.0740   15.7840   -0.1780 C.ar    1  PHE1       -0.0042
     16 CD1         7.0060   15.1680   -2.2850 C.ar    1  PHE1       -0.0042
     17 CE2         5.3060   14.6380   -0.1740 C.ar    1  PHE1       -0.0003
     18 CE1         6.2300   14.0140   -2.2950 C.ar    1  PHE1       -0.0003
     19 CZ          5.3810   13.7420   -1.2270 C.ar    1  PHE1       -0.0000
     20 N           7.5110   20.4210   -0.4470 N.am    2  TYR2       -0.1962
     21 CA          8.2120   21.6150   -0.0060 C.3     2  TYR2        0.1771
     22 C           9.3390   21.2110    0.9400 C.2     2  TYR2        0.2619
     23 O           9.1290   20.3790    1.8270 O.2     2  TYR2       -0.2715
     24 CB          7.2680   22.6030    0.6670 C.3     2  TYR2        0.0574
     25 CG          6.3360   23.2660   -0.3110 C.ar    2  TYR2       -0.0198
     26 CD1         6.7090   24.4240   -0.9900 C.ar    2  TYR2       -0.0009
     27 CD2         5.0910   22.7270   -0.5740 C.ar    2  TYR2       -0.0009
     28 CE1         5.8500   25.0300   -1.8900 C.ar    2  TYR2        0.0417
     29 CE2         4.2230   23.3250   -1.4730 C.ar    2  TYR2        0.0417
     30 CZ          4.6080   24.4730   -2.1280 C.ar    2  TYR2        0.1957
     31 OH          3.7470   25.0650   -3.0200 O.3     2  TYR2       -0.2866
     32 N          10.5030   21.8120    0.7290 N.am    3  MET3       -0.1964
     33 CA         11.7100   21.5430    1.5170 C.3     3  MET3        0.1722
     34 C          12.0370   22.7510    2.3750 C.2     3  MET3        0.2458
     35 O          11.9010   23.8850    1.9260 O.2     3  MET3       -0.2730
     36 CB         12.8880   21.2430    0.5890 C.3     3  MET3        0.0427
     37 CG         12.5050   20.3070   -0.5320 C.3     3  MET3        0.0599
     38 SD         12.4840   18.6090    0.0840 S.3     3  MET3       -0.1393
     39 CE         14.2420   18.1970   -0.1660 C.3     3  MET3        0.0692
     40 N          12.4520   22.5140    3.6110 N.am    4  PRO4       -0.2727
     41 CA         12.7610   23.6150    4.5310 C.3     4  PRO4        0.1402
     42 C          14.0920   24.2400    4.1800 C.2     4  PRO4        0.2269
     43 O          14.9860   23.5240    3.7200 O.2     4  PRO4       -0.2865
     44 CB         12.8500   22.9210    5.8950 C.3     4  PRO4        0.0296
     45 CG         13.1840   21.5060    5.5850 C.3     4  PRO4        0.0237
     46 CD         12.6570   21.1920    4.2210 C.3     4  PRO4        0.0939
     47 N          16.1190   25.4510    6.2890 N.3     1  LYS1       -0.1231
     48 CA         16.9760   24.9010    7.3240 C.3     1  LYS1        0.1693
     49 C          16.3100   23.7510    8.0880 C.2     1  LYS1        0.2592
     50 O          15.1460   23.8280    8.4820 O.2     1  LYS1       -0.2718
     51 CB         17.3710   26.0280    8.2930 C.3     1  LYS1        0.0285
     52 CG         18.3100   25.6370    9.4270 C.3     1  LYS1        0.0035
     53 CD         18.6210   26.8420   10.3280 C.3     1  LYS1        0.0206
     54 CE         17.3550   27.4110   10.9730 C.3     1  LYS1        0.1093
     55 NZ         17.6390   28.5590   11.8840 N.3     1  LYS1       -0.1314
     56 N          17.0570   22.6760    8.2820 N.am    2  ALA2       -0.1966
     57 CA         16.5930   21.5680    9.1060 C.3     2  ALA2        0.1728
     58 C          17.8310   20.9970    9.7580 C.2     2  ALA2        0.2616
     59 O          18.4990   20.1670    9.1590 O.2     2  ALA2       -0.2715
     60 CB         15.8830   20.5200    8.2650 C.3     2  ALA2        0.0334
     61 N          18.1620   21.4910   10.9540 N.am    3  THR3       -0.1951
     62 CA         19.3400   21.0310   11.7090 C.3     3  THR3        0.1897
     63 C          19.0270   20.8120   13.1780 C.2     3  THR3        0.2313
     64 O          19.9000   20.3900   13.9370 O.2     3  THR3       -0.2863
     65 CB         20.4900   22.0440   11.6810 C.3     3  THR3        0.1794
     66 OG1        19.9910   23.3310   12.0470 O.3     3  THR3       -0.2208
     67 CG2        21.0780   22.2230   10.2730 C.3     3  THR3        0.0378
     68 N          12.7530   21.7980   13.7320 N.3     1  HIS1       -0.1227
     69 CA         12.5820   21.8110   12.2880 C.3     1  HIS1        0.1749
     70 C          11.6910   20.6660   11.7900 C.2     1  HIS1        0.2596
     71 O          11.1760   20.7240   10.6810 O.2     1  HIS1       -0.2718
     72 CB         13.9370   21.8480   11.5640 C.3     1  HIS1        0.0718
     73 CG         14.7310   23.0780   11.8620 C.2     1  HIS1        0.0650
     74 ND1        16.1010   23.0710   11.9760 N.2     1  HIS1       -0.2310
     75 CD2        14.3410   24.3530   12.0950 C.3     1  HIS1        0.1683
     76 CE1        16.5260   24.2880   12.2530 C.2     1  HIS1        0.1939
     77 NE2        15.4770   25.0850   12.3340 N.2     1  HIS1       -0.2440
     78 N          11.4980   19.6500   12.6280 N.am    2  LEU2       -0.1966
     79 CA         10.6260   18.5270   12.3070 C.3     2  LEU2        0.1728
     80 C           9.1910   18.9810   12.0300 C.2     2  LEU2        0.2616
     81 O           8.4160   18.2640   11.4130 O.2     2  LEU2       -0.2715
     82 CB         10.6450   17.5040   13.4310 C.3     2  LEU2        0.0311
     83 CG         11.8020   16.5000   13.3280 C.3     2  LEU2        0.0022
     84 CD2        11.8980   15.6900   14.5920 C.3     2  LEU2        0.0001
     85 CD1        11.6010   15.5890   12.1490 C.3     2  LEU2        0.0001
     86 N           8.8470   20.1710   12.4970 N.am    3  GLN3       -0.1963
     87 CA          7.5560   20.7550   12.1830 C.3     3  GLN3        0.1733
     88 C           7.3990   20.8760   10.6740 C.2     3  GLN3        0.2616
     89 O           6.3050   20.7160   10.1420 O.2     3  GLN3       -0.2715
     90 CB          7.4060   22.1400   12.8100 C.3     3  GLN3        0.0408
     91 CG          5.9820   22.6770   12.6990 C.3     3  GLN3        0.0908
     92 CD          5.8230   24.0910   13.2430 C.2     3  GLN3        0.2608
     93 OE1         6.2850   24.3990   14.3410 O.2     3  GLN3       -0.2717
     94 NE2         5.1710   24.9440   12.4770 N.am    3  GLN3       -0.0878
     95 N           8.4930   21.1590    9.9800 N.am    4  CYS4       -0.1954
     96 CA          8.4370   21.3070    8.5240 C.3     4  CYS4        0.1843
     97 C           8.1980   19.9820    7.7870 C.2     4  CYS4        0.2625
     98 O           7.8110   19.9540    6.6030 O.2     4  CYS4       -0.2714
     99 CB          9.7000   22.0160    8.0340 C.3     4  CYS4        0.0997
    100 SG         10.0280   23.4910    9.0210 S.3     4  CYS4       -0.0797
    101 N           8.4280   18.8830    8.4890 N.am    5  LEU5       -0.1963
    102 CA          8.1430   17.5570    7.9660 C.3     5  LEU5        0.1728
    103 C           6.6710   17.2490    8.2920 C.2     5  LEU5        0.2616
    104 O           5.9310   16.7370    7.4590 O.2     5  LEU5       -0.2715
    105 CB          9.0860   16.5020    8.5790 C.3     5  LEU5        0.0311
    106 CG          8.7080   15.0320    8.3240 C.3     5  LEU5        0.0022
    107 CD1         8.5660   14.7280    6.8280 C.3     5  LEU5        0.0001
    108 CD2         9.6510   14.0550    9.0020 C.3     5  LEU5        0.0001
    109 N           6.2430   17.6130    9.4980 N.am    6  GLU6       -0.1977
    110 CA          4.8590   17.3900    9.9080 C.3     6  GLU6        0.1600
    111 C           3.8850   18.0900    8.9650 C.2     6  GLU6        0.2287
    112 O           2.8570   17.5370    8.6120 O.2     6  GLU6       -0.2864
    113 CB          4.6250   17.8830   11.3380 C.3     6  GLU6        0.0356
    114 CG          3.2580   17.5620   11.9390 C.3     6  GLU6        0.0439
    115 CD          3.1160   18.1760   13.3300 C.2     6  GLU6        0.0504
    116 OE1         3.6050   19.3210   13.5430 O.co2   6  GLU6       -0.5492
    117 OE2         2.5160   17.5250   14.1960 O.co2   6  GLU6       -0.5492
    118 N           4.1620   18.6190    5.8530 N.3     1  GLU1       -0.1245
    119 CA          4.0950   17.9480    4.5750 C.3     1  GLU1        0.1565
    120 C           3.6030   16.5110    4.6790 C.2     1  GLU1        0.2260
    121 O           3.7220   15.7460    3.7220 O.2     1  GLU1       -0.2867
    122 CB          5.4720   17.9730    3.9100 C.3     1  GLU1        0.0329
    123 CG          5.8960   19.3640    3.4460 C.3     1  GLU1        0.0437
    124 CD          5.1600   19.7490    2.1830 C.2     1  GLU1        0.0504
    125 OE1         5.5240   19.2050    1.1150 O.co2   1  GLU1       -0.5492
    126 OE2         4.2100   20.5620    2.2650 O.co2   1  GLU1       -0.5492
    127 N          10.1430   27.5550    3.7030 N.3     1  TYR1       -0.1241
    128 CA         10.4340   26.5930    2.6510 C.3     1  TYR1        0.1605
    129 C          11.2600   27.2270    1.5370 C.2     1  TYR1        0.2264
    130 O          11.1860   28.4320    1.3040 O.2     1  TYR1       -0.2867
    131 CB          9.1300   25.9650    2.1240 C.3     1  TYR1        0.0534
    132 CG          8.4030   25.1600    3.1890 C.ar    1  TYR1       -0.0201
    133 CD1         8.8330   23.8840    3.5300 C.ar    1  TYR1       -0.0009
    134 CD2         7.3240   25.6980    3.8910 C.ar    1  TYR1       -0.0009
    135 CE1         8.2010   23.1550    4.5040 C.ar    1  TYR1        0.0417
    136 CE2         6.6800   24.9760    4.8720 C.ar    1  TYR1        0.0417
    137 CZ          7.1230   23.7000    5.1790 C.ar    1  TYR1        0.1957
    138 OH          6.5190   22.9570    6.1650 O.3     1  TYR1       -0.2866
    139 N          13.6350   12.9500   -3.2860 N.3     1  GLU1       -0.1231
    140 CA         14.4550   14.0210   -2.6930 C.3     1  GLU1        0.1697
    141 C          13.9880   14.4450   -1.3230 C.2     1  GLU1        0.2592
    142 O          14.8020   14.7560   -0.4390 O.2     1  GLU1       -0.2718
    143 CB         14.5970   15.2140   -3.6560 C.3     1  GLU1        0.0343
    144 CG         15.2220   14.7250   -4.9660 C.3     1  GLU1        0.0437
    145 CD         14.9170   15.5310   -6.2260 C.2     1  GLU1        0.0504
    146 OE2        14.1310   16.5270   -6.2140 O.co2   1  GLU1       -0.5492
    147 OE1        15.4690   15.1110   -7.2710 O.co2   1  GLU1       -0.5492
    148 N          12.6670   14.4540   -1.1460 N.am    2  PHE2       -0.1962
    149 CA         12.0530   14.8120    0.1270 C.3     2  PHE2        0.1771
    150 C          12.4250   13.7890    1.2070 C.2     2  PHE2        0.2619
    151 O          12.8610   14.1570    2.3020 O.2     2  PHE2       -0.2715
    152 CB         10.5280   14.8980   -0.0860 C.3     2  PHE2        0.0574
    153 CG          9.7230   15.0080    1.1570 C.ar    2  PHE2       -0.0200
    154 CD2         9.5370   16.2270    1.7760 C.ar    2  PHE2       -0.0042
    155 CD1         9.0400   13.9050    1.6470 C.ar    2  PHE2       -0.0042
    156 CE2         8.7380   16.3270    2.8910 C.ar    2  PHE2       -0.0003
    157 CE1         8.2330   14.0070    2.7630 C.ar    2  PHE2       -0.0003
    158 CZ          8.0920   15.2160    3.3860 C.ar    2  PHE2       -0.0000
    159 N          12.3040   12.5070    0.8740 N.am    3  LEU3       -0.1963
    160 CA         12.6400   11.4420    1.8090 C.3     3  LEU3        0.1728
    161 C          14.1450   11.4190    2.1120 C.2     3  LEU3        0.2616
    162 O          14.5370   11.3560    3.2890 O.2     3  LEU3       -0.2715
    163 CB         12.1580   10.0780    1.3080 C.3     3  LEU3        0.0311
    164 CG         10.6620    9.9120    1.0840 C.3     3  LEU3        0.0022
    165 CD1        10.3500    8.6000    0.3680 C.3     3  LEU3        0.0001
    166 CD2         9.8560   10.0220    2.3860 C.3     3  LEU3        0.0001
    167 N          14.9710   11.5260    1.0720 N.am    4  ASN4       -0.1958
    168 CA         16.4190   11.5210    1.2770 C.3     4  ASN4        0.1819
    169 C          16.8200   12.6260    2.2580 C.2     4  ASN4        0.2621
    170 O          17.6460   12.4070    3.1340 O.2     4  ASN4       -0.2715
    171 CB         17.2370   11.6750   -0.0330 C.3     4  ASN4        0.1195
    172 CG         17.2140   10.4190   -0.9410 C.2     4  ASN4        0.2630
    173 OD1        17.5120   10.5050   -2.1300 O.2     4  ASN4       -0.2716
    174 ND2        16.8710    9.2810   -0.3860 N.am    4  ASN4       -0.0877
    175 N          16.2330   13.8070    2.1150 N.am    5  ARG5       -0.1963
    176 CA         16.5480   14.9400    2.9840 C.3     5  ARG5        0.1729
    177 C          16.1670   14.6900    4.4470 C.2     5  ARG5        0.2616
    178 O          16.9520   14.9800    5.3560 O.2     5  ARG5       -0.2715
    179 CB         15.8890   16.2260    2.4620 C.3     5  ARG5        0.0348
    180 CG         16.1590   17.4820    3.2940 C.3     5  ARG5        0.0492
    181 CD         17.4440   18.2330    2.9400 C.3     5  ARG5        0.2205
    182 NE         17.3920   18.8160    1.5950 N.pl3   5  ARG5       -0.0865
    183 CZ         16.8500   19.9950    1.2930 C.cat   5  ARG5        0.5346
    184 NH2        16.3000   20.7510    2.2380 N.pl3   5  ARG5        0.1354
    185 NH1        16.8550   20.4200    0.0350 N.pl3   5  ARG5        0.1354
    186 N          14.9670   14.1660    4.6780 N.am    6  TRP6       -0.1960
    187 CA         14.5460   13.8440    6.0280 C.3     6  TRP6        0.1768
    188 C          15.2560   12.6550    6.6480 C.2     6  TRP6        0.2619
    189 O          15.4290   12.6310    7.8660 O.2     6  TRP6       -0.2715
    190 CB         13.0200   13.7790    6.1550 C.3     6  TRP6        0.0553
    191 CG         12.4180   15.1400    6.0320 C.2     6  TRP6       -0.0136
    192 CD1        11.6680   15.6080    4.9970 C.2     6  TRP6        0.0907
    193 CD2        12.5260   16.2160    6.9640 C.3     6  TRP6        0.0819
    194 NE1        11.2650   16.8950    5.2390 N.2     6  TRP6       -0.2482
    195 CE2        11.7940   17.3010    6.4350 C.2     6  TRP6        0.0665
    196 CE3        13.1630   16.3760    8.2010 C.2     6  TRP6       -0.0164
    197 CZ2        11.6800   18.5210    7.0920 C.2     6  TRP6        0.0153
    198 CZ3        13.0590   17.6090    8.8570 C.2     6  TRP6       -0.0038
    199 CH2        12.3010   18.6490    8.3050 C.2     6  TRP6        0.0009
    200 N          15.7060   11.7140    5.8150 N.am    7  ILE7       -0.1977
    201 CA         16.5290   10.6090    6.2780 C.3     7  ILE7        0.1596
    202 C          17.8710   11.1960    6.7300 C.2     7  ILE7        0.2287
    203 O          18.3400   10.9140    7.8140 O.2     7  ILE7       -0.2864
    204 CB         16.7120    9.5260    5.1820 C.3     7  ILE7        0.0276
    205 CG1        15.4800    8.6290    5.0920 C.3     7  ILE7        0.0022
    206 CG2        17.9040    8.5990    5.4810 C.3     7  ILE7        0.0022
    207 CD1        15.2920    8.0900    3.7060 C.3     7  ILE7        0.0001
    208 N          18.4460   14.1860    7.7570 N.3     1  PHE1       -0.1227
    209 CA         18.1390   14.9140    8.9630 C.3     1  PHE1        0.1736
    210 C          18.1640   14.0010   10.1770 C.2     1  PHE1        0.2595
    211 O          18.8320   14.3090   11.1750 O.2     1  PHE1       -0.2718
    212 CB         16.7640   15.6250    8.8500 C.3     1  PHE1        0.0547
    213 CG         16.3250   16.2850   10.1290 C.ar    1  PHE1       -0.0202
    214 CD1        16.7060   17.5860   10.4210 C.ar    1  PHE1       -0.0042
    215 CD2        15.5760   15.5890   11.0520 C.ar    1  PHE1       -0.0042
    216 CE1        16.3210   18.1920   11.6010 C.ar    1  PHE1       -0.0003
    217 CE2        15.1930   16.1710   12.2320 C.ar    1  PHE1       -0.0003
    218 CZ         15.5670   17.4820   12.5150 C.ar    1  PHE1       -0.0000
    219 N          17.4170   12.8980   10.1190 N.am    2  CYS2       -0.1970
    220 CA         17.4030   11.9620   11.2380 C.3     2  CYS2        0.1712
    221 C          18.8340   11.4990   11.5590 C.2     2  CYS2        0.2296
    222 O          19.3000   11.5730   12.7090 O.2     2  CYS2       -0.2864
    223 CB         16.4870   10.7840   10.9530 C.3     2  CYS2        0.0983
    224 SG         14.7390   11.2600   10.8480 S.3     2  CYS2       -0.0798
@<TRIPOS>UNITY_ATOM_ATTR
116 1
charge -1
125 1
charge -1
146 1
charge -1
@<TRIPOS>BOND
     1     1     2    1
     2     2     3    1
     3     2     5    1
     4     3     4    2
     5     5     6    1
     6     6     8    1
     7     6     7    1
     8     9    10    1
     9    10    11    1
    10    10    13    1
    11    11    12    2
    12    11    20   am
    13    13    14    1
    14    14    16   ar
    15    14    15   ar
    16    15    17   ar
    17    16    18   ar
    18    17    19   ar
    19    18    19   ar
    20    20    21    1
    21    21    24    1
    22    21    22    1
    23    22    32   am
    24    22    23    2
    25    24    25    1
    26    25    26   ar
    27    25    27   ar
    28    26    28   ar
    29    27    29   ar
    30    28    30   ar
    31    29    30   ar
    32    30    31    1
    33    32    33    1
    34    33    36    1
    35    33    34    1
    36    34    35    2
    37    34    40   am
    38    36    37    1
    39    37    38    1
    40    38    39    1
    41    40    46    1
    42    40    41    1
    43    41    42    1
    44    41    44    1
    45    42    43    2
    46    44    45    1
    47    45    46    1
    48    47    48    1
    49    48    49    1
    50    48    51    1
    51    49    56   am
    52    49    50    2
    53    51    52    1
    54    52    53    1
    55    53    54    1
    56    54    55    1
    57    56    57    1
    58    57    60    1
    59    57    58    1
    60    58    59    2
    61    58    61   am
    62    61    62    1
    63    62    65    1
    64    62    63    1
    65    63    64    2
    66    65    67    1
    67    65    66    1
    68    68    69    1
    69    69    72    1
    70    69    70    1
    71    70    71    2
    72    70    78   am
    73    72    73    1
    74    73    74    2
    75    73    75    1
    76    74    76    1
    77    75    77    1
    78    76    77    2
    79    78    79    1
    80    79    80    1
    81    79    82    1
    82    80    81    2
    83    80    86   am
    84    82    83    1
    85    83    85    1
    86    83    84    1
    87    86    87    1
    88    87    88    1
    89    87    90    1
    90    88    95   am
    91    88    89    2
    92    90    91    1
    93    91    92    1
    94    92    94   am
    95    92    93    2
    96    95    96    1
    97    96    97    1
    98    96    99    1
    99    97    98    2
   100    97   101   am
   101    99   100    1
   102   101   102    1
   103   102   103    1
   104   102   105    1
   105   103   104    2
   106   103   109   am
   107   105   106    1
   108   106   107    1
   109   106   108    1
   110   109   110    1
   111   110   111    1
   112   110   113    1
   113   111   112    2
   114   113   114    1
   115   114   115    1
   116   115   116   ar
   117   115   117   ar
   118   118   119    1
   119   119   122    1
   120   119   120    1
   121   120   121    2
   122   122   123    1
   123   123   124    1
   124   124   125   ar
   125   124   126   ar
   126   127   128    1
   127   128   129    1
   128   128   131    1
   129   129   130    2
   130   131   132    1
   131   132   133   ar
   132   132   134   ar
   133   133   135   ar
   134   134   136   ar
   135   135   137   ar
   136   136   137   ar
   137   137   138    1
   138   139   140    1
   139   140   143    1
   140   140   141    1
   141   141   148   am
   142   141   142    2
   143   143   144    1
   144   144   145    1
   145   145   147   ar
   146   145   146   ar
   147   148   149    1
   148   149   152    1
   149   149   150    1
   150   150   159   am
   151   150   151    2
   152   152   153    1
   153   153   155   ar
   154   153   154   ar
   155   154   156   ar
   156   155   157   ar
   157   156   158   ar
   158   157   158   ar
   159   159   160    1
   160   160   163    1
   161   160   161    1
   162   161   167   am
   163   161   162    2
   164   163   164    1
   165   164   165    1
   166   164   166    1
   167   167   168    1
   168   168   171    1
   169   168   169    1
   170   169   175   am
   171   169   170    2
   172   171   172    1
   173   172   173    2
   174   172   174   am
   175   175   176    1
   176   176   179    1
   177   176   177    1
   178   177   186   am
   179   177   178    2
   180   179   180    1
   181   180   181    1
   182   181   182    1
   183   182   183    2
   184   183   185    1
   185   183   184    1
   186   186   187    1
   187   187   190    1
   188   187   188    1
   189   188   200   am
   190   188   189    2
   191   190   191    1
   192   191   192    2
   193   191   193    1
   194   192   194    1
   195   193   195    1
   196   193   196    1
   197   194   195    2
   198   195   197    1
   199   196   198    2
   200   197   199    2
   201   198   199    1
   202   200   201    1
   203   201   204    1
   204   201   202    1
   205   202   203    2
   206   204   205    1
   207   204   206    1
   208   205   207    1
   209   208   209    1
   210   209   212    1
   211   209   210    1
   212   210   219   am
   213   210   211    2
   214   212   213    1
   215   213   214   ar
   216   213   215   ar
   217   214   216   ar
   218   215   217   ar
   219   216   218   ar
   220   217   218   ar
   221   219   220    1
   222   220   223    1
   223   220   221    1
   224   221   222    2
   225   223   224    1
