@<TRIPOS>MOLECULE
./1m48/protein.pdb
 125 119 0 0 0
SMALL
GASTEIGER

@<TRIPOS>ATOM
      1 N          11.1480    4.2640    9.2200 N.3     1  ASP1       -0.1241
      2 CA          9.8710    4.4870    8.5690 C.3     1  ASP1        0.1616
      3 C          10.0590    5.1640    7.2250 C.2     1  ASP1        0.2264
      4 O           9.4760    4.7360    6.2130 O.2     1  ASP1       -0.2867
      5 CB          8.9980    5.3650    9.4530 C.3     1  ASP1        0.0687
      6 CG          8.4050    4.6120   10.6400 C.2     1  ASP1        0.0522
      7 OD1         8.5230    3.3610   10.7160 O.co2   1  ASP1       -0.5491
      8 OD2         7.7960    5.2020   11.5600 O.co2   1  ASP1       -0.5491
      9 N          11.7180    2.8340    4.7550 N.3     1  MET1       -0.1230
     10 CA         10.8300    1.8060    4.2290 C.3     1  MET1        0.1702
     11 C           9.9880    2.3870    3.1040 C.2     1  MET1        0.2592
     12 O           9.7720    1.7400    2.0780 O.2     1  MET1       -0.2718
     13 CB          9.9430    1.2350    5.3390 C.3     1  MET1        0.0401
     14 CG         10.7080    0.2860    6.2550 C.3     1  MET1        0.0596
     15 SD          9.8240   -0.1660    7.7520 S.3     1  MET1       -0.1393
     16 CE         10.2460   -1.8830    7.9000 C.3     1  MET1        0.0692
     17 N           9.5040    3.6060    3.2950 N.am    2  ILE2       -0.1966
     18 CA          8.7580    4.2630    2.2120 C.3     2  ILE2        0.1727
     19 C           9.6270    4.3750    0.9440 C.2     2  ILE2        0.2616
     20 O           9.2330    3.9540   -0.1530 O.2     2  ILE2       -0.2715
     21 CB          8.2370    5.6410    2.6400 C.3     2  ILE2        0.0290
     22 CG1         7.2080    5.4850    3.7580 C.3     2  ILE2        0.0022
     23 CG2         7.5810    6.3550    1.4500 C.3     2  ILE2        0.0023
     24 CD1         6.8730    6.7830    4.4490 C.3     2  ILE2        0.0001
     25 N          10.8020    4.9540    1.1040 N.am    3  LEU3       -0.1977
     26 CA         11.7450    5.0990   -0.0040 C.3     3  LEU3        0.1596
     27 C          12.0170    3.7660   -0.7180 C.2     3  LEU3        0.2287
     28 O          11.9750    3.6680   -1.9510 O.2     3  LEU3       -0.2864
     29 CB         13.0690    5.6890    0.5070 C.3     3  LEU3        0.0297
     30 CG         14.1780    5.9980   -0.4990 C.3     3  LEU3        0.0022
     31 CD1        13.8800    7.2820   -1.3080 C.3     3  LEU3        0.0001
     32 CD2        15.5030    6.1540    0.2330 C.3     3  LEU3        0.0001
     33 N          10.1750    1.2400   -0.9720 N.3     1  GLY1       -0.1210
     34 CA          8.9750    0.7690   -1.6500 C.3     1  GLY1        0.1956
     35 C           8.8310    1.3040   -3.0700 C.2     1  GLY1        0.2611
     36 O           8.2830    0.6400   -3.9590 O.2     1  GLY1       -0.2717
     37 N           9.3520    2.5040   -3.2800 N.am    2  ILE2       -0.1979
     38 CA          9.3210    3.1790   -4.5640 C.3     2  ILE2        0.1595
     39 C          10.0690    2.3810   -5.6250 C.2     2  ILE2        0.2287
     40 O           9.6930    2.3980   -6.7940 O.2     2  ILE2       -0.2864
     41 CB          9.9100    4.6020   -4.3810 C.3     2  ILE2        0.0276
     42 CG1         8.9690    5.4230   -3.4990 C.3     2  ILE2        0.0022
     43 CG2        10.1690    5.2920   -5.7130 C.3     2  ILE2        0.0022
     44 CD1         9.4810    6.7720   -3.1610 C.3     2  ILE2        0.0001
     45 N           7.7110    0.2340   -7.6640 N.3     1  TYR1       -0.1241
     46 CA          6.6000    0.8080   -8.4230 C.3     1  TYR1        0.1605
     47 C           6.8220    0.6890   -9.9250 C.2     1  TYR1        0.2264
     48 O           7.9450    0.7920  -10.4160 O.2     1  TYR1       -0.2867
     49 CB          6.3220    2.2660   -8.0450 C.3     1  TYR1        0.0534
     50 CG          5.8670    2.4990   -6.6150 C.ar    1  TYR1       -0.0201
     51 CD2         5.4200    1.4590   -5.8120 C.ar    1  TYR1       -0.0009
     52 CD1         5.8910    3.7740   -6.0700 C.ar    1  TYR1       -0.0009
     53 CE2         5.0120    1.6920   -4.4990 C.ar    1  TYR1        0.0417
     54 CE1         5.4880    4.0130   -4.7710 C.ar    1  TYR1        0.0417
     55 CZ          5.0500    2.9740   -3.9900 C.ar    1  TYR1        0.1957
     56 OH          4.6550    3.2240   -2.6920 O.3     1  TYR1       -0.2866
     57 N           0.8620    8.8080   -1.5880 N.3     1  LEU1       -0.1231
     58 CA          1.0360    7.3940   -1.2900 C.3     1  LEU1        0.1693
     59 C          -0.2510    6.5700   -1.4000 C.2     1  LEU1        0.2592
     60 O          -0.1950    5.3670   -1.6750 O.2     1  LEU1       -0.2718
     61 CB          1.6320    7.1910    0.0970 C.3     1  LEU1        0.0284
     62 CG          3.1310    7.4030    0.2790 C.3     1  LEU1        0.0019
     63 CD2         3.4870    7.1270    1.7300 C.3     1  LEU1        0.0001
     64 CD1         3.9680    6.5270   -0.6710 C.3     1  LEU1        0.0001
     65 N          -1.3980    7.1900   -1.1490 N.am    2  ASN2       -0.1974
     66 CA         -2.6560    6.4670   -1.2880 C.3     2  ASN2        0.1688
     67 C          -2.8400    6.1990   -2.7710 C.2     2  ASN2        0.2292
     68 O          -3.1660    5.0820   -3.1790 O.2     2  ASN2       -0.2864
     69 CB         -3.8440    7.2380   -0.6900 C.3     2  ASN2        0.1181
     70 CG         -3.9780    7.0310    0.8100 C.2     2  ASN2        0.2629
     71 OD1        -4.2050    7.9770    1.5680 O.2     2  ASN2       -0.2716
     72 ND2        -3.8300    5.7860    1.2450 N.am    2  ASN2       -0.0877
     73 N          -0.6540    5.6860   -4.9790 N.3     1  ALA1       -0.1231
     74 CA          0.2520    4.6340   -5.4510 C.3     1  ALA1        0.1694
     75 C           0.2780    3.3480   -4.6240 C.2     1  ALA1        0.2591
     76 O           1.3590    2.8400   -4.3270 O.2     1  ALA1       -0.2718
     77 CB          1.6710    5.1860   -5.5500 C.3     1  ALA1        0.0304
     78 N          -0.8750    2.8080   -4.2490 N.am    2  GLN2       -0.1979
     79 CA         -0.8570    1.5690   -3.4730 C.3     2  GLN2        0.1601
     80 C          -1.6020    0.4410   -4.1740 C.2     2  GLN2        0.2287
     81 O          -0.9900   -0.5400   -4.5920 O.2     2  GLN2       -0.2864
     82 CB         -1.3890    1.7800   -2.0510 C.3     2  GLN2        0.0394
     83 CG         -2.8400    2.2460   -1.9760 C.3     2  GLN2        0.0908
     84 CD         -3.3870    2.2850   -0.5500 C.2     2  GLN2        0.2608
     85 OE1        -4.2090    3.1450   -0.2210 O.2     2  GLN2       -0.2717
     86 NE2        -2.9430    1.3500    0.2900 N.am    2  GLN2       -0.0878
     87 N          -1.0580    0.2410    5.6120 N.3     1  ALA1       -0.1231
     88 CA         -2.0680    1.2380    5.2840 C.3     1  ALA1        0.1679
     89 C          -1.4870    2.6400    5.4650 C.2     1  ALA1        0.2434
     90 O          -1.0530    3.0110    6.5590 O.2     1  ALA1       -0.2733
     91 CB         -3.2930    1.0480    6.1450 C.3     1  ALA1        0.0304
     92 N          -1.4530    3.4020    4.3790 N.am    2  PRO2       -0.2718
     93 CA         -0.8610    4.7460    4.3800 C.3     2  PRO2        0.1535
     94 C          -1.3040    5.6200    5.5540 C.2     2  PRO2        0.2598
     95 O          -0.4500    6.2300    6.1930 O.2     2  PRO2       -0.2715
     96 CB         -1.3070    5.3190    3.0400 C.3     2  PRO2        0.0310
     97 CG         -1.4070    4.1020    2.1610 C.3     2  PRO2        0.0237
     98 CD         -1.9550    3.0150    3.0500 C.3     2  PRO2        0.0939
     99 N          -2.6000    5.6660    5.8360 N.am    3  ARG3       -0.1978
    100 CA         -3.1080    6.4320    6.9690 C.3     3  ARG3        0.1597
    101 C          -2.3850    6.0400    8.2510 C.2     3  ARG3        0.2287
    102 O          -1.9780    6.8990    9.0370 O.2     3  ARG3       -0.2864
    103 CB         -4.6040    6.1940    7.1390 C.3     3  ARG3        0.0334
    104 CG         -5.1890    6.8860    8.3530 C.3     3  ARG3        0.0492
    105 CD         -6.0960    6.0040    9.1930 C.3     3  ARG3        0.2205
    106 NE         -7.3570    5.7020    8.5230 N.pl3   3  ARG3       -0.0865
    107 CZ         -8.3580    6.5660    8.3840 C.cat   3  ARG3        0.5346
    108 NH2        -8.2600    7.7970    8.8670 N.pl3   3  ARG3        0.1354
    109 NH1        -9.4680    6.2020    7.7630 N.pl3   3  ARG3        0.1354
    110 N           0.6670    4.3630    8.6190 N.3     1  LEU1       -0.1231
    111 CA          2.0910    4.6690    8.6360 C.3     1  LEU1        0.1693
    112 C           2.3370    6.1650    8.8450 C.2     1  LEU1        0.2591
    113 O           3.2160    6.5450    9.6160 O.2     1  LEU1       -0.2718
    114 CB          2.7820    4.1890    7.3560 C.3     1  LEU1        0.0284
    115 CG          4.2450    4.6080    7.1690 C.3     1  LEU1        0.0019
    116 CD2         5.0850    4.3180    8.4030 C.3     1  LEU1        0.0001
    117 CD1         4.8420    3.9310    5.9440 C.3     1  LEU1        0.0001
    118 N           1.5600    7.0040    8.1710 N.am    2  ILE2       -0.1980
    119 CA          1.7280    8.4500    8.3010 C.3     2  ILE2        0.1595
    120 C           1.3910    8.9180    9.7230 C.2     2  ILE2        0.2287
    121 O           2.0760    9.7700   10.2970 O.2     2  ILE2       -0.2864
    122 CB          0.8560    9.1970    7.2760 C.3     2  ILE2        0.0276
    123 CG1         1.3230    8.9150    5.8470 C.3     2  ILE2        0.0022
    124 CG2         0.8690   10.6990    7.5700 C.3     2  ILE2        0.0022
    125 CD1         2.7540    9.3530    5.5430 C.3     2  ILE2        0.0001
@<TRIPOS>UNITY_ATOM_ATTR
7 1
charge -1
@<TRIPOS>BOND
     1     1     2    1
     2     2     3    1
     3     2     5    1
     4     3     4    2
     5     5     6    1
     6     6     7   ar
     7     6     8   ar
     8     9    10    1
     9    10    11    1
    10    10    13    1
    11    11    12    2
    12    11    17   am
    13    13    14    1
    14    14    15    1
    15    15    16    1
    16    17    18    1
    17    18    19    1
    18    18    21    1
    19    19    20    2
    20    19    25   am
    21    21    23    1
    22    21    22    1
    23    22    24    1
    24    25    26    1
    25    26    27    1
    26    26    29    1
    27    27    28    2
    28    29    30    1
    29    30    31    1
    30    30    32    1
    31    33    34    1
    32    34    35    1
    33    35    36    2
    34    35    37   am
    35    37    38    1
    36    38    39    1
    37    38    41    1
    38    39    40    2
    39    41    43    1
    40    41    42    1
    41    42    44    1
    42    45    46    1
    43    46    47    1
    44    46    49    1
    45    47    48    2
    46    49    50    1
    47    50    52   ar
    48    50    51   ar
    49    51    53   ar
    50    52    54   ar
    51    53    55   ar
    52    54    55   ar
    53    55    56    1
    54    57    58    1
    55    58    59    1
    56    58    61    1
    57    59    60    2
    58    59    65   am
    59    61    62    1
    60    62    64    1
    61    62    63    1
    62    65    66    1
    63    66    67    1
    64    66    69    1
    65    67    68    2
    66    69    70    1
    67    70    72   am
    68    70    71    2
    69    73    74    1
    70    74    77    1
    71    74    75    1
    72    75    76    2
    73    75    78   am
    74    78    79    1
    75    79    80    1
    76    79    82    1
    77    80    81    2
    78    82    83    1
    79    83    84    1
    80    84    85    2
    81    84    86   am
    82    87    88    1
    83    88    89    1
    84    88    91    1
    85    89    92   am
    86    89    90    2
    87    92    98    1
    88    92    93    1
    89    93    96    1
    90    93    94    1
    91    94    99   am
    92    94    95    2
    93    96    97    1
    94    97    98    1
    95    99   100    1
    96   100   103    1
    97   100   101    1
    98   101   102    2
    99   103   104    1
   100   104   105    1
   101   105   106    1
   102   106   107    2
   103   107   109    1
   104   107   108    1
   105   110   111    1
   106   111   114    1
   107   111   112    1
   108   112   118   am
   109   112   113    2
   110   114   115    1
   111   115   117    1
   112   115   116    1
   113   118   119    1
   114   119   122    1
   115   119   120    1
   116   120   121    2
   117   122   123    1
   118   122   124    1
   119   123   125    1
