@<TRIPOS>MOLECULE
./1fjs/protein.pdb
 139 139 0 0 0
SMALL
GASTEIGER

@<TRIPOS>ATOM
      1 N          16.1850   21.7160   36.7340 N.3     1  GLY1       -0.1235
      2 CA         17.6020   21.9510   36.5510 C.3     1  GLY1        0.1677
      3 C          17.8290   23.3070   37.1640 C.2     1  GLY1        0.2270
      4 O          17.1320   24.2540   36.8190 O.2     1  GLY1       -0.2867
      5 CB         17.9740   22.0340   35.0760 C.3     1  GLY1        0.0956
      6 SG         17.9020   20.4480   34.2970 S.3     1  GLY1       -0.0801
      7 N          22.5120   26.8130   35.6520 N.3     1  GLY1       -0.1210
      8 CA         23.7550   26.2940   35.1030 C.3     1  GLY1        0.1956
      9 C          23.9800   24.8020   35.1660 C.2     1  GLY1        0.2612
     10 O          25.0510   24.3510   34.7650 O.2     1  GLY1       -0.2717
     11 N          22.9940   24.0290   35.6150 N.am    2  GLU2       -0.1965
     12 CA         23.1360   22.5730   35.7310 C.3     2  GLU2        0.1731
     13 C          22.9950   21.7130   34.4840 C.2     2  GLU2        0.2616
     14 O          23.5210   20.6080   34.4630 O.2     2  GLU2       -0.2715
     15 CB         22.1950   22.0110   36.7870 C.3     2  GLU2        0.0370
     16 CG         22.5340   22.4560   38.1750 C.3     2  GLU2        0.0440
     17 CD         21.7560   21.6900   39.2170 C.2     2  GLU2        0.0504
     18 OE1        20.5870   21.2900   38.9550 O.co2   2  GLU2       -0.5492
     19 OE2        22.3250   21.4880   40.3050 O.co2   2  GLU2       -0.5492
     20 N          22.2130   22.1520   33.5010 N.am    3  CYS3       -0.1954
     21 CA         22.0610   21.3610   32.2560 C.3     3  CYS3        0.1828
     22 C          22.3620   22.3180   31.1190 C.2     3  CYS3        0.2467
     23 O          21.5120   22.5040   30.2330 O.2     3  CYS3       -0.2730
     24 CB         20.6340   20.8090   32.0940 C.3     3  CYS3        0.0996
     25 SG         20.0210   19.9330   33.5610 S.3     3  CYS3       -0.0798
     26 N          23.5940   22.8680   31.0690 N.am    4  PRO4       -0.2715
     27 CA         23.9590   23.8190   30.0200 C.3     4  PRO4        0.1536
     28 C          23.9370   23.3130   28.5950 C.2     4  PRO4        0.2598
     29 O          23.8810   24.1290   27.6780 O.2     4  PRO4       -0.2715
     30 CB         25.3700   24.2720   30.4300 C.3     4  PRO4        0.0310
     31 CG         25.9320   23.0580   31.0540 C.3     4  PRO4        0.0237
     32 CD         24.7860   22.5570   31.8970 C.3     4  PRO4        0.0939
     33 N          23.9540   21.9960   28.4150 N.am    5  TRP5       -0.1974
     34 CA         23.9690   21.4040   27.0750 C.3     5  TRP5        0.1637
     35 C          22.5960   21.1190   26.5030 C.2     5  TRP5        0.2290
     36 O          22.4710   20.6090   25.3990 O.2     5  TRP5       -0.2864
     37 CB         24.8150   20.1150   27.0630 C.3     5  TRP5        0.0539
     38 CG         24.6980   19.3320   28.3100 C.2     5  TRP5       -0.0137
     39 CD1        23.6360   18.5530   28.6950 C.2     5  TRP5        0.0907
     40 CD2        25.5940   19.3760   29.4270 C.3     5  TRP5        0.0819
     41 NE1        23.8170   18.1490   29.9950 N.2     5  TRP5       -0.2482
     42 CE2        25.0050   18.6300   30.4630 C.2     5  TRP5        0.0665
     43 CE3        26.8400   19.9820   29.6490 C.2     5  TRP5       -0.0164
     44 CZ2        25.6180   18.4720   31.7100 C.2     5  TRP5        0.0153
     45 CZ3        27.4460   19.8250   30.8930 C.2     5  TRP5       -0.0038
     46 CH2        26.8250   19.0740   31.9040 C.2     5  TRP5        0.0009
     47 N          21.9230   10.6970   33.4130 N.3     1  ILE1       -0.1231
     48 CA         21.0370   11.7900   33.7140 C.3     1  ILE1        0.1692
     49 C          20.3300   12.1620   32.4280 C.2     1  ILE1        0.2592
     50 O          20.9860   12.3780   31.4140 O.2     1  ILE1       -0.2718
     51 CB         21.8350   13.0370   34.1910 C.3     1  ILE1        0.0266
     52 CG1        22.6510   12.7230   35.4480 C.3     1  ILE1        0.0019
     53 CG2        20.8920   14.2110   34.4060 C.3     1  ILE1        0.0020
     54 CD1        21.8070   12.5040   36.6270 C.3     1  ILE1        0.0001
     55 N          19.0070   12.2840   32.4780 N.am    2  VAL2       -0.1966
     56 CA         18.2210   12.6690   31.3180 C.3     2  VAL2        0.1727
     57 C          17.5410   14.0150   31.6610 C.2     2  VAL2        0.2616
     58 O          17.2870   14.3080   32.8310 O.2     2  VAL2       -0.2715
     59 CB         17.2310   11.5410   30.8990 C.3     2  VAL2        0.0290
     60 CG2        16.3270   11.1090   32.0380 C.3     2  VAL2        0.0023
     61 CG1        16.3800   11.9940   29.7490 C.3     2  VAL2        0.0023
     62 N          17.3130   14.8640   30.6640 N.am    3  SER3       -0.1950
     63 CA         16.6900   16.1640   30.9390 C.3     3  SER3        0.1924
     64 CB         15.8000   16.6830   29.8000 C.2     3  SER3        0.2314
     65 OG         15.8930   16.2170   28.6440 O.2     3  SER3       -0.2863
     66 C          17.7700   17.2040   31.2880 C.3     3  SER3        0.2116
     67 O          18.6470   17.4300   30.1860 O.3     3  SER3       -0.2180
     68 N          13.7740   20.2690   33.3820 N.3     1  LYS1       -0.1231
     69 CA         13.9030   19.2360   34.4000 C.3     1  LYS1        0.1693
     70 C          14.9540   18.2010   34.0430 C.2     1  LYS1        0.2592
     71 O          15.3360   18.0740   32.8880 O.2     1  LYS1       -0.2718
     72 CB         12.5470   18.5580   34.6190 C.3     1  LYS1        0.0285
     73 CG         11.4520   19.5220   35.1050 C.3     1  LYS1        0.0035
     74 CD         10.1720   18.7590   35.4190 C.3     1  LYS1        0.0206
     75 CE         10.4110   17.7010   36.4670 C.3     1  LYS1        0.1093
     76 NZ          9.2350   16.7900   36.5440 N.3     1  LYS1       -0.1314
     77 N          15.4690   17.5260   35.0610 N.am    2  MET2       -0.1965
     78 CA         16.4670   16.4920   34.8690 C.3     2  MET2        0.1736
     79 C          16.0170   15.3280   35.7400 C.2     2  MET2        0.2616
     80 O          15.2060   15.5050   36.6610 O.2     2  MET2       -0.2715
     81 CB         17.8420   16.9640   35.3130 C.3     2  MET2        0.0427
     82 CG         17.9380   17.1790   36.8040 C.3     2  MET2        0.0599
     83 SD         19.5710   17.6250   37.2890 S.3     2  MET2       -0.1393
     84 CE         19.3450   17.6810   39.0260 C.3     2  MET2        0.0692
     85 N          16.5660   14.1520   35.4780 N.am    3  LEU3       -0.1977
     86 CA         16.2080   12.9600   36.2280 C.3     3  LEU3        0.1596
     87 C          17.3280   11.9400   36.1270 C.2     3  LEU3        0.2287
     88 O          17.8080   11.6310   35.0410 O.2     3  LEU3       -0.2864
     89 CB         14.9250   12.3570   35.6520 C.3     3  LEU3        0.0297
     90 CG         14.5280   10.9640   36.1420 C.3     3  LEU3        0.0022
     91 CD2        14.2080   10.9640   37.6330 C.3     3  LEU3        0.0001
     92 CD1        13.3440   10.5040   35.3440 C.3     3  LEU3        0.0001
     93 N          19.1120   15.1630   25.8030 N.3     1  PRO1       -0.2102
     94 CA         20.2890   14.4760   26.3150 C.3     1  PRO1        0.1504
     95 C          20.1560   13.4060   27.3770 C.2     1  PRO1        0.2576
     96 O          19.3060   13.4630   28.2350 O.2     1  PRO1       -0.2718
     97 CB         21.1760   15.6090   26.8280 C.3     1  PRO1        0.0282
     98 CG         20.2350   16.7290   27.1280 C.3     1  PRO1        0.0208
     99 CD         18.9750   16.5300   26.3420 C.3     1  PRO1        0.0893
    100 N          21.0250   12.4180   27.2880 N.am    2  HIS2       -0.1962
    101 CA         21.1540   11.3920   28.3050 C.3     2  HIS2        0.1784
    102 C          22.6810   11.4630   28.4220 C.2     2  HIS2        0.2620
    103 O          23.4130   11.2540   27.4560 O.2     2  HIS2       -0.2715
    104 CB         20.7010    9.9980   27.8630 C.3     2  HIS2        0.0745
    105 CG         21.0270    8.9110   28.8550 C.2     2  HIS2        0.0653
    106 ND1        22.3110    8.4680   29.0770 N.2     2  HIS2       -0.2310
    107 CD2        20.2310    8.1810   29.6690 C.3     2  HIS2        0.1683
    108 CE1        22.2960    7.5090   29.9880 C.2     2  HIS2        0.1939
    109 NE2        21.0390    7.3140   30.3570 N.2     2  HIS2       -0.2440
    110 N          23.1360   11.9200   29.5740 N.am    3  VAL3       -0.1977
    111 CA         24.5540   12.0460   29.8850 C.3     3  VAL3        0.1596
    112 C          24.9620   11.2180   31.1200 C.2     3  VAL3        0.2287
    113 O          24.1400   10.8540   31.9580 O.2     3  VAL3       -0.2864
    114 CB         24.9910   13.5590   30.1170 C.3     3  VAL3        0.0276
    115 CG1        24.8600   14.3950   28.8190 C.3     3  VAL3        0.0022
    116 CG2        24.1950   14.1910   31.2420 C.3     3  VAL3        0.0022
    117 N          27.8910   11.1820   34.1950 N.3     1  ARG1       -0.1245
    118 CA         28.9100   11.9750   34.8510 C.3     1  ARG1        0.1563
    119 C          30.0320   11.0560   35.2740 C.2     1  ARG1        0.2260
    120 O          29.7890    9.9460   35.7580 O.2     1  ARG1       -0.2867
    121 CB         28.3490   12.6650   36.0970 C.3     1  ARG1        0.0307
    122 CG         29.3400   13.6090   36.7680 C.3     1  ARG1        0.0489
    123 CD         28.9100   14.0680   38.1680 C.3     1  ARG1        0.2205
    124 NE         29.0260   12.9900   39.1430 N.pl3   1  ARG1       -0.0865
    125 CZ         30.1810   12.4930   39.6180 C.cat   1  ARG1        0.5346
    126 NH1        31.3690   12.9780   39.2500 N.pl3   1  ARG1        0.1354
    127 NH2        30.1550   11.3880   40.3600 N.pl3   1  ARG1        0.1354
    128 N          30.5610   15.5580   32.3850 N.3     1  TYR1       -0.1241
    129 CA         29.4150   14.9240   31.7780 C.3     1  TYR1        0.1605
    130 C          29.6280   14.5830   30.3020 C.2     1  TYR1        0.2264
    131 O          29.9320   15.4330   29.4780 O.2     1  TYR1       -0.2867
    132 CB         28.2020   15.8340   31.9590 C.3     1  TYR1        0.0534
    133 CG         27.7550   15.9960   33.3870 C.ar    1  TYR1       -0.0201
    134 CD2        28.3840   16.8950   34.2320 C.ar    1  TYR1       -0.0009
    135 CD1        26.6820   15.2600   33.8780 C.ar    1  TYR1       -0.0009
    136 CE2        27.9560   17.0710   35.5480 C.ar    1  TYR1        0.0417
    137 CE1        26.2450   15.4220   35.1980 C.ar    1  TYR1        0.0417
    138 CZ         26.8870   16.3330   36.0210 C.ar    1  TYR1        0.1957
    139 OH         26.4510   16.5140   37.3180 O.3     1  TYR1       -0.2866
@<TRIPOS>UNITY_ATOM_ATTR
18 1
charge -1
@<TRIPOS>BOND
     1     1     2    1
     2     2     5    1
     3     2     3    1
     4     3     4    2
     5     5     6    1
     6     6    25    1
     7     7     8    1
     8     8     9    1
     9     9    10    2
    10     9    11   am
    11    11    12    1
    12    12    13    1
    13    12    15    1
    14    13    20   am
    15    13    14    2
    16    15    16    1
    17    16    17    1
    18    17    18   ar
    19    17    19   ar
    20    20    21    1
    21    21    22    1
    22    21    24    1
    23    22    23    2
    24    22    26   am
    25    24    25    1
    26    26    27    1
    27    26    32    1
    28    27    28    1
    29    27    30    1
    30    28    29    2
    31    28    33   am
    32    30    31    1
    33    31    32    1
    34    33    34    1
    35    34    35    1
    36    34    37    1
    37    35    36    2
    38    37    38    1
    39    38    39    2
    40    38    40    1
    41    39    41    1
    42    40    43    1
    43    40    42    1
    44    41    42    2
    45    42    44    1
    46    43    45    2
    47    44    46    2
    48    45    46    1
    49    47    48    1
    50    48    49    1
    51    48    51    1
    52    49    50    2
    53    49    55   am
    54    51    53    1
    55    51    52    1
    56    52    54    1
    57    55    56    1
    58    56    59    1
    59    56    57    1
    60    57    62   am
    61    57    58    2
    62    59    61    1
    63    59    60    1
    64    62    63    1
    65    63    64    1
    66    63    66    1
    67    64    65    2
    68    66    67    1
    69    68    69    1
    70    69    70    1
    71    69    72    1
    72    70    71    2
    73    70    77   am
    74    72    73    1
    75    73    74    1
    76    74    75    1
    77    75    76    1
    78    77    78    1
    79    78    81    1
    80    78    79    1
    81    79    85   am
    82    79    80    2
    83    81    82    1
    84    82    83    1
    85    83    84    1
    86    85    86    1
    87    86    89    1
    88    86    87    1
    89    87    88    2
    90    89    90    1
    91    90    92    1
    92    90    91    1
    93    93    94    1
    94    93    99    1
    95    94    97    1
    96    94    95    1
    97    95   100   am
    98    95    96    2
    99    97    98    1
   100    98    99    1
   101   100   101    1
   102   101   104    1
   103   101   102    1
   104   102   103    2
   105   102   110   am
   106   104   105    1
   107   105   106    2
   108   105   107    1
   109   106   108    1
   110   107   109    1
   111   108   109    2
   112   110   111    1
   113   111   114    1
   114   111   112    1
   115   112   113    2
   116   114   115    1
   117   114   116    1
   118   117   118    1
   119   118   119    1
   120   118   121    1
   121   119   120    2
   122   121   122    1
   123   122   123    1
   124   123   124    1
   125   124   125    2
   126   125   126    1
   127   125   127    1
   128   128   129    1
   129   129   130    1
   130   129   132    1
   131   130   131    2
   132   132   133    1
   133   133   135   ar
   134   133   134   ar
   135   134   136   ar
   136   135   137   ar
   137   136   138   ar
   138   137   138   ar
   139   138   139    1
