@<TRIPOS>MOLECULE
./3i0d/protein.pdb
 132 128 0 0 0
SMALL
GASTEIGER

@<TRIPOS>ATOM
      1 N         -17.0490  -27.0220   -1.5940 N.3     1  VAL1       -0.1231
      2 CA        -17.4560  -26.0030   -0.6560 C.3     1  VAL1        0.1692
      3 C         -17.7290  -26.6940    0.6980 C.2     1  VAL1        0.2592
      4 O         -18.3610  -27.7660    0.7360 O.2     1  VAL1       -0.2718
      5 CB        -18.6330  -25.1660   -1.2350 C.3     1  VAL1        0.0266
      6 CG1       -19.9880  -25.9600   -1.2870 C.3     1  VAL1        0.0020
      7 CG2       -18.7920  -23.9610   -0.4410 C.3     1  VAL1        0.0020
      8 N         -17.2590  -26.1020    1.7950 N.am    2  PHE2       -0.1962
      9 CA        -17.5530  -26.6000    3.1320 C.3     2  PHE2        0.1771
     10 C         -18.6240  -25.7330    3.8060 C.2     2  PHE2        0.2619
     11 O         -18.5660  -24.4870    3.7600 O.2     2  PHE2       -0.2715
     12 CB        -16.2640  -26.6250    4.0020 C.3     2  PHE2        0.0574
     13 CG        -15.2840  -27.6580    3.5720 C.ar    2  PHE2       -0.0200
     14 CD1       -14.5690  -27.5190    2.3570 C.ar    2  PHE2       -0.0042
     15 CD2       -15.1040  -28.8080    4.3030 C.ar    2  PHE2       -0.0042
     16 CE1       -13.6570  -28.5180    1.9390 C.ar    2  PHE2       -0.0003
     17 CE2       -14.2090  -29.7970    3.8680 C.ar    2  PHE2       -0.0003
     18 CZ        -13.5080  -29.6590    2.6980 C.ar    2  PHE2       -0.0000
     19 N         -19.5960  -26.4000    4.4390 N.am    3  ALA3       -0.1963
     20 CA        -20.6360  -25.6980    5.1800 C.3     3  ALA3        0.1728
     21 C         -20.8890  -26.5230    6.4520 C.2     3  ALA3        0.2616
     22 O         -21.6920  -27.4660    6.4660 O.2     3  ALA3       -0.2715
     23 CB        -21.8910  -25.5330    4.3210 C.3     3  ALA3        0.0334
     24 N         -20.1830  -26.1420    7.5080 N.am    4  ILE4       -0.1963
     25 CA        -20.1380  -26.8280    8.8210 C.3     4  ILE4        0.1727
     26 C         -20.7800  -25.9070    9.8720 C.2     4  ILE4        0.2616
     27 O         -20.6420  -24.6500    9.7920 O.2     4  ILE4       -0.2715
     28 CB        -18.6450  -27.1110    9.1890 C.3     4  ILE4        0.0290
     29 CG1       -17.9650  -27.9220    8.0900 C.3     4  ILE4        0.0022
     30 CG2       -18.4820  -27.8630   10.5360 C.3     4  ILE4        0.0023
     31 CD1       -18.7490  -29.0580    7.5830 C.3     4  ILE4        0.0001
     32 N         -21.5150  -26.5060   10.8300 N.am    5  LYS5       -0.1977
     33 CA        -22.2140  -25.7370   11.8480 C.3     5  LYS5        0.1596
     34 C         -23.1040  -24.6360   11.2290 C.2     5  LYS5        0.2287
     35 O         -23.9170  -24.9120   10.3330 O.2     5  LYS5       -0.2864
     36 CB        -21.2290  -25.1510   12.8740 C.3     5  LYS5        0.0298
     37 CG        -20.6360  -26.2030   13.8260 C.3     5  LYS5        0.0038
     38 CD        -20.1710  -25.5780   15.1940 C.3     5  LYS5        0.0206
     39 CE        -21.2910  -25.4980   16.3430 C.3     5  LYS5        0.1093
     40 NZ        -22.3810  -24.4300   16.2230 N.3     5  LYS5       -0.1314
     41 N         -22.5410  -22.2990    9.2030 N.3     1  TYR1       -0.1241
     42 CA        -22.2400  -21.9580    7.7730 C.3     1  TYR1        0.1605
     43 C         -23.1740  -22.6050    6.7460 C.2     1  TYR1        0.2264
     44 O         -23.2140  -22.1410    5.5820 O.2     1  TYR1       -0.2867
     45 CB        -20.7720  -22.1780    7.4110 C.3     1  TYR1        0.0534
     46 CG        -19.8680  -21.1310    7.9960 C.ar    1  TYR1       -0.0201
     47 CD2       -19.6510  -21.0590    9.3890 C.ar    1  TYR1       -0.0009
     48 CD1       -19.1980  -20.2040    7.1800 C.ar    1  TYR1       -0.0009
     49 CE2       -18.8010  -20.0730    9.9370 C.ar    1  TYR1        0.0417
     50 CE1       -18.3320  -19.2300    7.7180 C.ar    1  TYR1        0.0417
     51 CZ        -18.1540  -19.1610    9.0950 C.ar    1  TYR1        0.1957
     52 OH        -17.3320  -18.2090    9.6410 O.3     1  TYR1       -0.2866
     53 N         -25.2990  -20.2500    4.6000 N.3     1  PHE1       -0.1241
     54 CA        -24.8280  -19.5920    3.3710 C.3     1  PHE1        0.1605
     55 C         -25.0180  -20.3600    2.0490 C.2     1  PHE1        0.2264
     56 O         -24.7330  -19.8230    0.9520 O.2     1  PHE1       -0.2867
     57 CB        -23.3490  -19.4110    3.5280 C.3     1  PHE1        0.0534
     58 CG        -22.9840  -18.4680    4.6210 C.ar    1  PHE1       -0.0203
     59 CD2       -22.2390  -18.8940    5.6980 C.ar    1  PHE1       -0.0042
     60 CD1       -23.4050  -17.1140    4.5410 C.ar    1  PHE1       -0.0042
     61 CE2       -21.8690  -17.9740    6.7020 C.ar    1  PHE1       -0.0003
     62 CE1       -23.0090  -16.1850    5.4950 C.ar    1  PHE1       -0.0003
     63 CZ        -22.2720  -16.6200    6.5900 C.ar    1  PHE1       -0.0000
     64 N          -7.1340  -27.6590    9.7860 N.3     1  MET1       -0.1230
     65 CA         -6.6200  -28.9420    9.3040 C.3     1  MET1        0.1702
     66 C          -7.6070  -29.7180    8.3830 C.2     1  MET1        0.2593
     67 O          -7.2100  -30.4950    7.4890 O.2     1  MET1       -0.2718
     68 CB         -6.1520  -29.8310   10.4700 C.3     1  MET1        0.0401
     69 CG         -5.4370  -31.1320   10.0020 C.3     1  MET1        0.0596
     70 SD         -3.6030  -31.2310   10.0920 S.3     1  MET1       -0.1393
     71 CE         -3.4200  -32.9900   10.2110 C.3     1  MET1        0.0692
     72 N          -8.8920  -29.4510    8.5770 N.am    2  GLY2       -0.1942
     73 CA         -9.9170  -30.1520    7.8580 C.3     2  GLY2        0.2014
     74 C          -9.9280  -29.9310    6.3490 C.2     2  GLY2        0.2638
     75 O         -10.0590  -30.9130    5.6300 O.2     2  GLY2       -0.2714
     76 N          -9.8640  -28.6900    5.8520 N.am    3  ARG3       -0.1977
     77 CA        -10.1850  -28.5190    4.3980 C.3     3  ARG3        0.1597
     78 C          -9.1880  -29.2680    3.5320 C.2     3  ARG3        0.2287
     79 O          -9.5790  -30.0480    2.6590 O.2     3  ARG3       -0.2864
     80 CB        -10.4270  -27.0510    3.9400 C.3     3  ARG3        0.0334
     81 CG        -11.7680  -26.5500    4.5150 C.3     3  ARG3        0.0492
     82 CD        -12.3480  -25.3410    3.8050 C.3     3  ARG3        0.2205
     83 NE        -11.4130  -24.2280    3.8090 N.pl3   3  ARG3       -0.0865
     84 CZ        -11.5950  -23.0910    3.1620 C.cat   3  ARG3        0.5346
     85 NH1       -12.6910  -22.8760    2.4360 N.pl3   3  ARG3        0.1354
     86 NH2       -10.6760  -22.1720    3.2640 N.pl3   3  ARG3        0.1354
     87 N          -9.4150  -33.1590    3.9830 N.3     1  MET1       -0.1245
     88 CA        -10.5970  -33.6620    3.2960 C.3     1  MET1        0.1570
     89 C         -10.5770  -33.5310    1.8000 C.2     1  MET1        0.2261
     90 O         -10.9700  -34.4590    1.0990 O.2     1  MET1       -0.2867
     91 CB        -11.8450  -33.0510    3.8830 C.3     1  MET1        0.0387
     92 CG        -12.1190  -33.7250    5.2260 C.3     1  MET1        0.0595
     93 SD        -13.6950  -33.2660    5.9080 S.3     1  MET1       -0.1393
     94 CE        -13.1200  -31.9040    6.9730 C.3     1  MET1        0.0692
     95 N         -13.5290  -23.2830   -2.8600 N.3     1  VAL1       -0.1231
     96 CA        -13.8700  -21.9590   -2.3510 C.3     1  VAL1        0.1692
     97 C         -14.5540  -22.0080   -0.9720 C.2     1  VAL1        0.2592
     98 O         -15.1630  -23.0100   -0.5670 O.2     1  VAL1       -0.2718
     99 CB        -14.7780  -21.1780   -3.3120 C.3     1  VAL1        0.0266
    100 CG1       -14.0660  -20.9190   -4.7200 C.3     1  VAL1        0.0020
    101 CG2       -16.1860  -21.8690   -3.4170 C.3     1  VAL1        0.0020
    102 N         -14.4370  -20.8900   -0.2700 N.am    2  ASP2       -0.1962
    103 CA        -15.3350  -20.4990    0.8670 C.3     2  ASP2        0.1783
    104 C         -16.8040  -20.4200    0.5300 C.2     2  ASP2        0.2620
    105 O         -17.2010  -19.9550   -0.6030 O.2     2  ASP2       -0.2715
    106 CB        -14.8940  -19.1040    1.3950 C.3     2  ASP2        0.0728
    107 CG        -13.6660  -19.1850    2.3010 C.2     2  ASP2        0.0526
    108 OD1       -12.9780  -20.2120    2.3570 O.co2   2  ASP2       -0.5491
    109 OD2       -13.3980  -18.1910    2.9590 O.co2   2  ASP2       -0.5491
    110 N         -17.6460  -20.6980    1.5390 N.am    3  VAL3       -0.1963
    111 CA        -19.1380  -20.7720    1.3080 C.3     3  VAL3        0.1727
    112 C         -19.8400  -19.4550    1.6590 C.2     3  VAL3        0.2616
    113 O         -20.9070  -19.1540    1.1000 O.2     3  VAL3       -0.2715
    114 CB        -19.7750  -21.9760    2.0610 C.3     3  VAL3        0.0290
    115 CG2       -19.7330  -21.6960    3.6130 C.3     3  VAL3        0.0023
    116 CG1       -21.2250  -22.2520    1.5580 C.3     3  VAL3        0.0023
    117 N         -19.1720  -18.6170    2.4590 N.am    4  ASP4       -0.1973
    118 CA        -19.7690  -17.3440    2.8980 C.3     4  ASP4        0.1651
    119 C         -19.6310  -16.2170    1.8570 C.2     4  ASP4        0.2291
    120 O         -19.1250  -15.1280    2.1540 O.2     4  ASP4       -0.2864
    121 CB        -19.2860  -16.9390    4.3210 C.3     4  ASP4        0.0714
    122 CG        -17.7720  -16.8330    4.4350 C.2     4  ASP4        0.0525
    123 OD2       -17.3340  -15.9820    5.2380 O.co2   4  ASP4       -0.5491
    124 OD1       -17.0040  -17.4940    3.6860 O.co2   4  ASP4       -0.5491
    125 N          -4.1160  -23.2730    7.2030 N.3     1  ASP1       -0.1241
    126 CA         -3.7930  -23.8250    5.8550 C.3     1  ASP1        0.1616
    127 C          -3.4100  -22.7700    4.8170 C.2     1  ASP1        0.2264
    128 O          -2.6810  -23.0930    3.8820 O.2     1  ASP1       -0.2867
    129 CB         -4.8140  -24.8350    5.3160 C.3     1  ASP1        0.0687
    130 CG         -6.2040  -24.2450    5.0280 C.2     1  ASP1        0.0522
    131 OD2        -6.4180  -23.0110    4.9480 O.co2   1  ASP1       -0.5491
    132 OD1        -7.1190  -25.0880    4.8110 O.co2   1  ASP1       -0.5491
@<TRIPOS>UNITY_ATOM_ATTR
108 1
charge -1
123 1
charge -1
131 1
charge -1
@<TRIPOS>BOND
     1     1     2    1
     2     2     5    1
     3     2     3    1
     4     3     4    2
     5     3     8   am
     6     5     6    1
     7     5     7    1
     8     8     9    1
     9     9    10    1
    10     9    12    1
    11    10    11    2
    12    10    19   am
    13    12    13    1
    14    13    14   ar
    15    13    15   ar
    16    14    16   ar
    17    15    17   ar
    18    16    18   ar
    19    17    18   ar
    20    19    20    1
    21    20    23    1
    22    20    21    1
    23    21    22    2
    24    21    24   am
    25    24    25    1
    26    25    28    1
    27    25    26    1
    28    26    27    2
    29    26    32   am
    30    28    29    1
    31    28    30    1
    32    29    31    1
    33    32    33    1
    34    33    34    1
    35    33    36    1
    36    34    35    2
    37    36    37    1
    38    37    38    1
    39    38    39    1
    40    39    40    1
    41    41    42    1
    42    42    43    1
    43    42    45    1
    44    43    44    2
    45    45    46    1
    46    46    48   ar
    47    46    47   ar
    48    47    49   ar
    49    48    50   ar
    50    49    51   ar
    51    50    51   ar
    52    51    52    1
    53    53    54    1
    54    54    55    1
    55    54    57    1
    56    55    56    2
    57    57    58    1
    58    58    60   ar
    59    58    59   ar
    60    59    61   ar
    61    60    62   ar
    62    61    63   ar
    63    62    63   ar
    64    64    65    1
    65    65    66    1
    66    65    68    1
    67    66    67    2
    68    66    72   am
    69    68    69    1
    70    69    70    1
    71    70    71    1
    72    72    73    1
    73    73    74    1
    74    74    75    2
    75    74    76   am
    76    76    77    1
    77    77    78    1
    78    77    80    1
    79    78    79    2
    80    80    81    1
    81    81    82    1
    82    82    83    1
    83    83    84    2
    84    84    85    1
    85    84    86    1
    86    87    88    1
    87    88    89    1
    88    88    91    1
    89    89    90    2
    90    91    92    1
    91    92    93    1
    92    93    94    1
    93    95    96    1
    94    96    99    1
    95    96    97    1
    96    97    98    2
    97    97   102   am
    98    99   100    1
    99    99   101    1
   100   102   103    1
   101   103   104    1
   102   103   106    1
   103   104   105    2
   104   104   110   am
   105   106   107    1
   106   107   108   ar
   107   107   109   ar
   108   110   111    1
   109   111   112    1
   110   111   114    1
   111   112   113    2
   112   112   117   am
   113   114   116    1
   114   114   115    1
   115   117   118    1
   116   118   119    1
   117   118   121    1
   118   119   120    2
   119   121   122    1
   120   122   124   ar
   121   122   123   ar
   122   125   126    1
   123   126   127    1
   124   126   129    1
   125   127   128    2
   126   129   130    1
   127   130   132   ar
   128   130   131   ar
