@<TRIPOS>MOLECULE
./1mmb/protein.pdb
 269 271 0 0 0
SMALL
GASTEIGER

@<TRIPOS>ATOM
      1 N          27.7920   71.3210   52.7830 N.3     1  PHE1       -0.2388
      2 CA         28.2310   70.4470   51.7230 C.3     1  PHE1        0.1374
      3 C          29.5570   70.9940   51.1760 C.2     1  PHE1        0.2244
      4 O          29.9380   72.1340   51.4620 O.2     1  PHE1       -0.2868
      5 CB         27.1410   70.2860   50.6560 C.3     1  PHE1        0.0514
      6 CG         26.0390   69.3620   51.0780 C.ar    1  PHE1       -0.0203
      7 CD2        26.3350   68.0800   51.5620 C.ar    1  PHE1       -0.0042
      8 CD1        24.7170   69.7510   50.9970 C.ar    1  PHE1       -0.0042
      9 CE2        25.3210   67.1950   51.9570 C.ar    1  PHE1       -0.0003
     10 CE1        23.6940   68.8780   51.3950 C.ar    1  PHE1       -0.0003
     11 CZ         23.9940   67.6030   51.8740 C.ar    1  PHE1       -0.0000
     12 H          27.0900   71.9840   52.6000 H       1  PHE1        0.1418
     13 N          31.6260   66.0840   44.0540 N.3     1  ASN1       -0.2376
     14 CA         32.1770   64.8390   44.6310 C.3     1  ASN1        0.1539
     15 C          32.3270   64.9580   46.1190 C.2     1  ASN1        0.2388
     16 O          31.6510   65.7710   46.6960 O.2     1  ASN1       -0.2736
     17 CB         33.4750   64.4130   43.9430 C.3     1  ASN1        0.1111
     18 CG         33.3460   64.4160   42.4290 C.2     1  ASN1        0.2213
     19 OD1        32.6480   63.5850   41.8610 O.2     1  ASN1       -0.2753
     20 ND2        34.0060   65.3600   41.7630 N.am    1  ASN1       -0.3287
     21 H          30.7730   66.0050   43.6000 H       1  ASN1        0.1418
     22 HD21       33.9310   65.3680   40.7850 H       1  ASN1        0.1449
     23 HD22       34.5510   65.9850   42.2790 H       1  ASN1        0.1449
     24 N          33.1620   64.1400   46.7550 N.am    2  GLY2       -0.2955
     25 CA         33.3060   64.2320   48.1910 C.3     2  GLY2        0.1757
     26 C          31.9930   63.8170   48.8490 C.2     2  GLY2        0.2428
     27 O          31.4330   62.7880   48.4650 O.2     2  GLY2       -0.2732
     28 H          33.6680   63.4330   46.2950 H       2  GLY2        0.1499
     29 N          31.5010   64.5530   49.8530 N.am    3  ILE3       -0.2969
     30 CA         30.2480   64.1420   50.4500 C.3     3  ILE3        0.1485
     31 C          29.0430   64.4430   49.5250 C.2     3  ILE3        0.2406
     32 O          28.9080   65.5620   48.9820 O.2     3  ILE3       -0.2733
     33 CB         30.0410   64.5950   51.9330 C.3     3  ILE3        0.0269
     34 CG1        29.0040   65.6600   52.0440 C.3     3  ILE3        0.0021
     35 CG2        31.2990   65.0830   52.6030 C.3     3  ILE3        0.0022
     36 CD1        28.7290   65.9230   53.4640 C.3     3  ILE3        0.0001
     37 H          31.9260   65.3620   50.1460 H       3  ILE3        0.1499
     38 N          28.2570   63.3890   49.2620 N.am    4  LEU4       -0.2970
     39 CA         27.0810   63.4240   48.3760 C.3     4  LEU4        0.1486
     40 C          25.7360   63.8610   48.9980 C.2     4  LEU4        0.2406
     41 O          24.9040   64.4780   48.3110 O.2     4  LEU4       -0.2733
     42 CB         26.8930   62.0510   47.7120 C.3     4  LEU4        0.0290
     43 CG         27.7070   61.6000   46.4890 C.3     4  LEU4        0.0021
     44 CD1        29.0270   62.2960   46.3460 C.3     4  LEU4        0.0001
     45 CD2        27.8880   60.1100   46.5690 C.3     4  LEU4        0.0001
     46 H          28.5320   62.5450   49.6570 H       4  LEU4        0.1499
     47 N          25.5470   63.5490   50.2790 N.am    5  ALA5       -0.2970
     48 CA         24.2890   63.8290   50.9750 C.3     5  ALA5        0.1486
     49 C          24.4470   63.3830   52.3700 C.2     5  ALA5        0.2406
     50 O          25.4400   62.7500   52.6790 O.2     5  ALA5       -0.2733
     51 CB         23.1500   62.9960   50.3610 C.3     5  ALA5        0.0312
     52 H          26.2630   63.1470   50.8020 H       5  ALA5        0.1499
     53 N          23.4550   63.7110   53.1990 N.am    6  HIS6       -0.2967
     54 CA         23.3840   63.2860   54.6000 C.3     6  HIS6        0.1545
     55 C          21.9580   63.2730   55.1420 C.2     6  HIS6        0.2410
     56 O          21.0810   63.9160   54.5730 O.2     6  HIS6       -0.2733
     57 CB         24.3450   64.0320   55.5540 C.3     6  HIS6        0.0741
     58 CG         24.1730   65.5160   55.6000 C.ar    6  HIS6        0.0563
     59 ND1        25.1810   66.4140   55.3270 N.ar    6  HIS6       -0.3381
     60 CD2        23.0950   66.2660   55.9420 C.ar    6  HIS6        0.1131
     61 CE1        24.7010   67.6500   55.5080 C.ar    6  HIS6        0.1748
     62 NE2        23.4370   67.6130   55.8830 N.ar    6  HIS6       -0.2229
     63 H          22.7030   64.2600   52.8620 H       6  HIS6        0.1499
     64 HD1        26.0980   66.1990   55.0670 H       6  HIS6        0.1672
     65 N          21.7440   62.5570   56.2400 N.am    7  ALA7       -0.2980
     66 CA         20.4350   62.4110   56.8380 C.3     7  ALA7        0.1369
     67 C          20.5080   62.3670   58.3510 C.2     7  ALA7        0.2266
     68 O          21.5350   62.0020   58.9120 O.2     7  ALA7       -0.2865
     69 CB         19.7650   61.1740   56.2990 C.3     7  ALA7        0.0298
     70 H          22.5070   62.1400   56.7100 H       7  ALA7        0.1498
     71 N          26.0430   60.6010   39.5500 N.3     1  TYR1       -0.2378
     72 CA         25.7130   59.7310   40.6800 C.3     1  TYR1        0.1491
     73 C          24.2320   59.3550   40.6480 C.2     1  TYR1        0.2386
     74 O          23.3760   60.2000   40.3720 O.2     1  TYR1       -0.2736
     75 CB         25.9910   60.4070   42.0250 C.3     1  TYR1        0.0527
     76 CG         27.4630   60.5940   42.3680 C.ar    1  TYR1       -0.0201
     77 CD1        28.0710   61.8350   42.1550 C.ar    1  TYR1       -0.0011
     78 CD2        28.2000   59.5350   42.9050 C.ar    1  TYR1       -0.0011
     79 CE1        29.4180   62.0190   42.4740 C.ar    1  TYR1        0.0363
     80 CE2        29.5480   59.7150   43.2270 C.ar    1  TYR1        0.0363
     81 CZ         30.1440   60.9560   43.0110 C.ar    1  TYR1        0.1337
     82 OH         31.4730   61.1340   43.3360 O.3     1  TYR1       -0.5055
     83 H          25.4780   61.3900   39.4000 H       1  TYR1        0.1418
     84 HH         31.8380   60.3060   43.6680 H       1  TYR1        0.2922
     85 N          23.9190   58.0810   40.9410 N.am    2  ASN2       -0.2978
     86 CA         22.5810   57.5460   40.7390 C.3     2  ASN2        0.1460
     87 C          21.7910   57.9840   41.9740 C.2     2  ASN2        0.2271
     88 O          22.1330   57.6100   43.1040 O.2     2  ASN2       -0.2865
     89 CB         22.6370   56.0250   40.6560 C.3     2  ASN2        0.1124
     90 CG         21.2810   55.4060   40.3510 C.2     2  ASN2        0.2215
     91 OD1        20.4690   55.1930   41.2490 O.2     2  ASN2       -0.2753
     92 ND2        21.0440   55.1050   39.0990 N.am    2  ASN2       -0.3287
     93 H          24.6680   57.4850   41.1320 H       2  ASN2        0.1498
     94 HD21       20.1720   54.7070   38.8860 H       2  ASN2        0.1449
     95 HD22       21.7580   55.2760   38.4420 H       2  ASN2        0.1449
     96 N          20.0320   55.0640   44.4110 N.3     1  LEU1       -0.2380
     97 CA         20.9460   54.3900   45.3580 C.3     1  LEU1        0.1447
     98 C          21.3940   55.3190   46.5190 C.2     1  LEU1        0.2383
     99 O          21.4890   54.8820   47.6650 O.2     1  LEU1       -0.2736
    100 CB         22.1790   53.8240   44.6090 C.3     1  LEU1        0.0264
    101 CG         21.9560   52.7080   43.5800 C.3     1  LEU1        0.0019
    102 CD1        23.1230   52.5960   42.6190 C.3     1  LEU1        0.0001
    103 CD2        21.7170   51.4000   44.3070 C.3     1  LEU1        0.0001
    104 H          20.2980   55.2070   43.4780 H       1  LEU1        0.1418
    105 N          21.6770   56.5910   46.2340 N.am    2  VAL2       -0.2982
    106 CA         22.1070   57.5170   47.2860 C.3     2  VAL2        0.1368
    107 C          20.8940   57.7550   48.2070 C.2     2  VAL2        0.2266
    108 O          21.0120   57.7540   49.4500 O.2     2  VAL2       -0.2865
    109 CB         22.6400   58.8860   46.6920 C.3     2  VAL2        0.0256
    110 CG2        22.9790   59.8980   47.8120 C.3     2  VAL2        0.0022
    111 CG1        23.8520   58.6530   45.8180 C.3     2  VAL2        0.0022
    112 H          21.6020   56.9280   45.3190 H       2  VAL2        0.1498
    113 N          18.3930   55.7240   48.8040 N.3     1  ALA1       -0.2380
    114 CA         18.1500   54.4860   49.5750 C.3     1  ALA1        0.1448
    115 C          19.0630   54.4330   50.7940 C.2     1  ALA1        0.2383
    116 O          18.6370   53.9670   51.8490 O.2     1  ALA1       -0.2736
    117 CB         18.3530   53.2310   48.6840 C.3     1  ALA1        0.0283
    118 H          18.6840   55.6590   47.8820 H       1  ALA1        0.1418
    119 N          20.3080   54.9310   50.6510 N.am    2  HIS2       -0.2969
    120 CA         21.3010   54.9670   51.7740 C.3     2  HIS2        0.1545
    121 C          20.8800   55.9650   52.8590 C.2     2  HIS2        0.2410
    122 O          20.9040   55.6540   54.0560 O.2     2  HIS2       -0.2733
    123 CB         22.7460   55.3060   51.2400 C.3     2  HIS2        0.0741
    124 CG         23.7990   55.4600   52.3070 C.ar    2  HIS2        0.0563
    125 ND1        24.6290   54.4480   52.7360 N.ar    2  HIS2       -0.3381
    126 CD2        24.1380   56.5440   53.0570 C.ar    2  HIS2        0.1131
    127 CE1        25.4200   54.9380   53.7150 C.ar    2  HIS2        0.1748
    128 NE2        25.1690   56.2130   53.9540 N.ar    2  HIS2       -0.2229
    129 H          20.5790   55.2800   49.7780 H       2  HIS2        0.1499
    130 HD1        24.7320   53.5360   52.3880 H       2  HIS2        0.1672
    131 N          20.5250   57.1770   52.4330 N.am    3  GLU3       -0.2980
    132 CA         20.1020   58.2240   53.3820 C.3     3  GLU3        0.1372
    133 C          18.8850   57.8210   54.2030 C.2     3  GLU3        0.2266
    134 O          18.8630   58.0000   55.4270 O.2     3  GLU3       -0.2865
    135 CB         19.8520   59.5610   52.6710 C.3     3  GLU3        0.0335
    136 CG         21.0810   60.1800   51.9830 C.3     3  GLU3        0.0439
    137 CD         22.3720   60.0360   52.7890 C.2     3  GLU3        0.0504
    138 OE1        23.4120   59.7280   52.1700 O.co2   3  GLU3       -0.5492
    139 OE2        22.3580   60.2210   54.0170 O.co2   3  GLU3       -0.5492
    140 H          20.5430   57.3640   51.4690 H       3  GLU3        0.1498
    141 N          19.4350   55.9440   57.3190 N.3     1  HIS1       -0.2388
    142 CA         19.7560   56.8050   58.4790 C.3     1  HIS1        0.1390
    143 C          18.5020   57.4460   59.1320 C.2     1  HIS1        0.2245
    144 O          18.4020   57.5380   60.3670 O.2     1  HIS1       -0.2868
    145 CB         20.7220   57.9610   58.0670 C.3     1  HIS1        0.0702
    146 CG         22.1220   57.5270   57.7460 C.ar    1  HIS1        0.0560
    147 ND1        22.8990   56.7310   58.5700 N.ar    1  HIS1       -0.3381
    148 CD2        22.9060   57.8200   56.6720 C.ar    1  HIS1        0.1131
    149 CE1        24.1010   56.5680   57.9880 C.ar    1  HIS1        0.1748
    150 NE2        24.1710   57.2100   56.8320 N.ar    1  HIS1       -0.2229
    151 H          19.7300   56.2150   56.4160 H       1  HIS1        0.1418
    152 HD1        22.6080   56.3330   59.4210 H       1  HIS1        0.1672
    153 N          26.2310   53.1070   59.8350 N.3     1  HIS1       -0.2388
    154 CA         26.9950   52.4860   58.7600 C.3     1  HIS1        0.1390
    155 C          27.3970   51.0550   59.0790 C.2     1  HIS1        0.2245
    156 O          27.5690   50.6920   60.2280 O.2     1  HIS1       -0.2868
    157 CB         28.2550   53.2910   58.4370 C.3     1  HIS1        0.0702
    158 CG         27.9640   54.5630   57.7310 C.ar    1  HIS1        0.0560
    159 ND1        28.6290   55.7430   57.9540 N.ar    1  HIS1       -0.3381
    160 CD2        27.0120   54.8430   56.8080 C.ar    1  HIS1        0.1131
    161 CE1        28.0670   56.6740   57.1800 C.ar    1  HIS1        0.1748
    162 NE2        27.0790   56.1640   56.4650 N.ar    1  HIS1       -0.2229
    163 H          26.6330   53.8250   60.3690 H       1  HIS1        0.1418
    164 HD1        29.3650   55.9230   58.5800 H       1  HIS1        0.1672
    165 N          26.9440   45.7720   51.8490 N.3     1  ALA1       -0.2380
    166 CA         25.7510   46.3430   52.4530 C.3     1  ALA1        0.1448
    167 C          25.4490   47.7340   51.8880 C.2     1  ALA1        0.2383
    168 O          26.3690   48.4760   51.5340 O.2     1  ALA1       -0.2736
    169 CB         25.9180   46.4270   53.9530 C.3     1  ALA1        0.0283
    170 H          27.7930   45.8750   52.3150 H       1  ALA1        0.1418
    171 N          24.1680   48.0420   51.6920 N.am    2  LEU2       -0.2972
    172 CA         23.7450   49.3680   51.2190 C.3     2  LEU2        0.1486
    173 C          24.2030   50.4300   52.2400 C.2     2  LEU2        0.2406
    174 O          24.5550   51.5290   51.8620 O.2     2  LEU2       -0.2733
    175 CB         22.2240   49.4380   51.0690 C.3     2  LEU2        0.0290
    176 CG         21.5720   50.7370   50.5970 C.3     2  LEU2        0.0021
    177 CD1        21.9100   51.0430   49.1430 C.3     2  LEU2        0.0001
    178 CD2        20.0670   50.6170   50.7590 C.3     2  LEU2        0.0001
    179 H          23.5550   47.3040   51.7000 H       2  LEU2        0.1499
    180 N          24.2450   50.0690   53.5300 N.am    3  MET3       -0.2970
    181 CA         24.6650   50.9950   54.5870 C.3     3  MET3        0.1494
    182 C          26.2090   51.2520   54.7410 C.2     3  MET3        0.2407
    183 O          26.6460   51.8970   55.7000 O.2     3  MET3       -0.2733
    184 CB         23.9990   50.6450   55.9250 C.3     3  MET3        0.0406
    185 CG         22.4910   50.9910   56.0310 C.3     3  MET3        0.0598
    186 SD         22.0280   52.5170   55.2030 S.3     3  MET3       -0.1393
    187 CE         22.5490   53.6680   56.4050 C.3     3  MET3        0.0692
    188 H          24.0120   49.1610   53.7930 H       3  MET3        0.1499
    189 N          27.0010   50.7410   53.7950 N.am    4  TYR4       -0.2967
    190 CA         28.4540   50.9320   53.7150 C.3     4  TYR4        0.1532
    191 C          28.6850   52.4380   53.3870 C.2     4  TYR4        0.2442
    192 O          28.0320   52.9720   52.5020 O.2     4  TYR4       -0.2731
    193 CB         28.9690   50.0540   52.5740 C.3     4  TYR4        0.0553
    194 CG         30.4570   49.8530   52.5880 C.ar    4  TYR4       -0.0198
    195 CD1        31.2490   50.3760   51.5580 C.ar    4  TYR4       -0.0011
    196 CD2        31.0910   49.1530   53.6550 C.ar    4  TYR4       -0.0011
    197 CE1        32.6400   50.2210   51.5690 C.ar    4  TYR4        0.0363
    198 CE2        32.4820   48.9880   53.6780 C.ar    4  TYR4        0.0363
    199 CZ         33.2440   49.5340   52.6200 C.ar    4  TYR4        0.1337
    200 OH         34.6130   49.4170   52.5860 O.3     4  TYR4       -0.5055
    201 H          26.5900   50.2310   53.0710 H       4  TYR4        0.1499
    202 HH         34.9540   49.0100   53.3980 H       4  TYR4        0.2922
    203 N          29.6790   53.0950   54.0320 N.am    5  PRO5       -0.2717
    204 CA         30.0200   54.5270   53.8600 C.3     5  PRO5        0.1518
    205 C          30.3660   55.0710   52.4820 C.2     5  PRO5        0.2409
    206 O          30.1610   56.2530   52.2360 O.2     5  PRO5       -0.2733
    207 CB         31.1980   54.7400   54.8270 C.3     5  PRO5        0.0310
    208 CG         31.0740   53.6440   55.8310 C.3     5  PRO5        0.0237
    209 CD         30.6350   52.4620   54.9640 C.3     5  PRO5        0.0939
    210 N          30.9130   54.2480   51.5880 N.am    6  ASN6       -0.2966
    211 CA         31.2970   54.7190   50.2540 C.3     6  ASN6        0.1577
    212 C          30.2860   54.2850   49.2270 C.2     6  ASN6        0.2411
    213 O          29.8000   53.1570   49.2840 O.2     6  ASN6       -0.2733
    214 CB         32.6940   54.1860   49.8460 C.3     6  ASN6        0.1137
    215 CG         33.8440   54.9380   50.5150 C.2     6  ASN6        0.2216
    216 OD1        34.7520   54.3240   51.0980 O.2     6  ASN6       -0.2753
    217 ND2        33.8410   56.2570   50.3940 N.am    6  ASN6       -0.3287
    218 H          31.0050   53.2910   51.7670 H       6  ASN6        0.1499
    219 HD21       34.5910   56.7840   50.7270 H       6  ASN6        0.1449
    220 HD22       33.1140   56.6760   49.8960 H       6  ASN6        0.1449
    221 N          29.9780   55.1810   48.2970 N.am    7  TYR7       -0.2967
    222 CA         29.0230   54.9420   47.2340 C.3     7  TYR7        0.1530
    223 C          29.6050   53.9730   46.2160 C.2     7  TYR7        0.2410
    224 O          30.7740   54.0800   45.8740 O.2     7  TYR7       -0.2733
    225 CB         28.6880   56.2730   46.5430 C.3     7  TYR7        0.0553
    226 CG         28.0230   56.1520   45.1830 C.ar    7  TYR7       -0.0198
    227 CD1        28.7830   55.9940   44.0150 C.ar    7  TYR7       -0.0011
    228 CD2        26.6470   56.1710   45.0490 C.ar    7  TYR7       -0.0011
    229 CE1        28.1710   55.8550   42.7550 C.ar    7  TYR7        0.0363
    230 CE2        26.0310   56.0400   43.7790 C.ar    7  TYR7        0.0363
    231 CZ         26.7920   55.8870   42.6570 C.ar    7  TYR7        0.1337
    232 OH         26.1870   55.8070   41.4280 O.3     7  TYR7       -0.5055
    233 H          30.4220   56.0590   48.3420 H       7  TYR7        0.1499
    234 HH         25.2440   55.6390   41.5580 H       7  TYR7        0.2922
    235 N          28.7720   53.0810   45.6810 N.am    8  ALA8       -0.2970
    236 CA         29.1910   52.1120   44.6770 C.3     8  ALA8        0.1486
    237 C          27.9690   51.7980   43.8220 C.2     8  ALA8        0.2406
    238 O          26.8870   51.5590   44.3690 O.2     8  ALA8       -0.2733
    239 CB         29.6910   50.8380   45.3660 C.3     8  ALA8        0.0312
    240 H          27.8320   53.0400   45.9580 H       8  ALA8        0.1499
    241 N          28.0930   51.8730   42.4970 N.am    9  PHE9       -0.2967
    242 CA         26.9470   51.5580   41.6370 C.3     9  PHE9        0.1530
    243 C          26.6820   50.0510   41.5670 C.2     9  PHE9        0.2409
    244 O          27.6110   49.2620   41.4600 O.2     9  PHE9       -0.2733
    245 CB         27.1560   52.0860   40.2230 C.3     9  PHE9        0.0553
    246 CG         25.9820   51.8430   39.3190 C.ar    9  PHE9       -0.0200
    247 CD2        24.8120   52.5860   39.4650 C.ar    9  PHE9       -0.0042
    248 CD1        26.0320   50.8550   38.3360 C.ar    9  PHE9       -0.0042
    249 CE2        23.7080   52.3520   38.6450 C.ar    9  PHE9       -0.0003
    250 CE1        24.9310   50.6110   37.5070 C.ar    9  PHE9       -0.0003
    251 CZ         23.7680   51.3600   37.6630 C.ar    9  PHE9       -0.0000
    252 H          28.9490   52.1310   42.0910 H       9  PHE9        0.1499
    253 N          25.4160   49.6640   41.6140 N.am   10  ARG10      -0.2980
    254 CA         24.9940   48.2710   41.5450 C.3    10  ARG10       0.1370
    255 C          23.7620   48.3390   40.6490 C.2    10  ARG10       0.2266
    256 O          23.0890   49.3630   40.6400 O.2    10  ARG10      -0.2865
    257 CB         24.5750   47.8190   42.9400 C.3    10  ARG10       0.0312
    258 CG         25.6650   47.9180   44.0130 C.3    10  ARG10       0.0450
    259 CD         25.1460   48.5050   45.3750 C.3    10  ARG10       0.1739
    260 NE         26.0700   48.3020   46.5120 N.pl3  10  ARG10      -0.2651
    261 CZ         26.1900   49.1170   47.5720 C.cat  10  ARG10       0.3417
    262 NH1        25.4450   50.2140   47.6620 N.pl3  10  ARG10      -0.2918
    263 NH2        27.0520   48.8340   48.5520 N.pl3  10  ARG10      -0.2918
    264 H          24.6890   50.3190   41.6800 H      10  ARG10       0.1498
    265 HE         26.6430   47.5040   46.4830 H      10  ARG10       0.2586
    266 HH11       24.7650   50.3870   46.9550 H      10  ARG10       0.2545
    267 HH12       25.4890   50.8080   48.4640 H      10  ARG10       0.2545
    268 HH21       27.6290   48.0130   48.4820 H      10  ARG10       0.2545
    269 HH22       27.1390   49.4380   49.3430 H      10  ARG10       0.2545
@<TRIPOS>UNITY_ATOM_ATTR
138 1
charge -1
@<TRIPOS>BOND
     1     1     2    1
     2     1    12    1
     3     2     5    1
     4     2     3    1
     5     3     4    2
     6     5     6    1
     7     6     8   ar
     8     6     7   ar
     9     7     9   ar
    10     8    10   ar
    11     9    11   ar
    12    10    11   ar
    13    13    21    1
    14    13    14    1
    15    14    17    1
    16    14    15    1
    17    15    16    2
    18    15    24   am
    19    17    18    1
    20    18    20   am
    21    18    19    2
    22    20    22    1
    23    20    23    1
    24    24    28    1
    25    24    25    1
    26    25    26    1
    27    26    27    2
    28    26    29   am
    29    29    37    1
    30    29    30    1
    31    30    31    1
    32    30    33    1
    33    31    32    2
    34    31    38   am
    35    33    34    1
    36    33    35    1
    37    34    36    1
    38    38    39    1
    39    38    46    1
    40    39    42    1
    41    39    40    1
    42    40    41    2
    43    40    47   am
    44    42    43    1
    45    43    44    1
    46    43    45    1
    47    47    52    1
    48    47    48    1
    49    48    51    1
    50    48    49    1
    51    49    50    2
    52    49    53   am
    53    53    63    1
    54    53    54    1
    55    54    55    1
    56    54    57    1
    57    55    56    2
    58    55    65   am
    59    57    58    1
    60    58    59   ar
    61    58    60   ar
    62    59    64    1
    63    59    61   ar
    64    60    62   ar
    65    61    62   ar
    66    65    70    1
    67    65    66    1
    68    66    69    1
    69    66    67    1
    70    67    68    2
    71    71    83    1
    72    71    72    1
    73    72    73    1
    74    72    75    1
    75    73    74    2
    76    73    85   am
    77    75    76    1
    78    76    77   ar
    79    76    78   ar
    80    77    79   ar
    81    78    80   ar
    82    79    81   ar
    83    80    81   ar
    84    81    82    1
    85    82    84    1
    86    85    86    1
    87    85    93    1
    88    86    89    1
    89    86    87    1
    90    87    88    2
    91    89    90    1
    92    90    92   am
    93    90    91    2
    94    92    95    1
    95    92    94    1
    96    96   104    1
    97    96    97    1
    98    97   100    1
    99    97    98    1
   100    98   105   am
   101    98    99    2
   102   100   101    1
   103   101   102    1
   104   101   103    1
   105   105   112    1
   106   105   106    1
   107   106   109    1
   108   106   107    1
   109   107   108    2
   110   109   111    1
   111   109   110    1
   112   113   118    1
   113   113   114    1
   114   114   117    1
   115   114   115    1
   116   115   119   am
   117   115   116    2
   118   119   129    1
   119   119   120    1
   120   120   123    1
   121   120   121    1
   122   121   131   am
   123   121   122    2
   124   123   124    1
   125   124   125   ar
   126   124   126   ar
   127   125   130    1
   128   125   127   ar
   129   126   128   ar
   130   127   128   ar
   131   131   140    1
   132   131   132    1
   133   132   135    1
   134   132   133    1
   135   133   134    2
   136   135   136    1
   137   136   137    1
   138   137   138   ar
   139   137   139   ar
   140   141   151    1
   141   141   142    1
   142   142   145    1
   143   142   143    1
   144   143   144    2
   145   145   146    1
   146   146   148   ar
   147   146   147   ar
   148   147   149   ar
   149   147   152    1
   150   148   150   ar
   151   149   150   ar
   152   153   154    1
   153   153   163    1
   154   154   157    1
   155   154   155    1
   156   155   156    2
   157   157   158    1
   158   158   160   ar
   159   158   159   ar
   160   159   161   ar
   161   159   164    1
   162   160   162   ar
   163   161   162   ar
   164   165   170    1
   165   165   166    1
   166   166   167    1
   167   166   169    1
   168   167   168    2
   169   167   171   am
   170   171   172    1
   171   171   179    1
   172   172   175    1
   173   172   173    1
   174   173   174    2
   175   173   180   am
   176   175   176    1
   177   176   177    1
   178   176   178    1
   179   180   188    1
   180   180   181    1
   181   181   182    1
   182   181   184    1
   183   182   189   am
   184   182   183    2
   185   184   185    1
   186   185   186    1
   187   186   187    1
   188   189   201    1
   189   189   190    1
   190   190   193    1
   191   190   191    1
   192   191   192    2
   193   191   203   am
   194   193   194    1
   195   194   195   ar
   196   194   196   ar
   197   195   197   ar
   198   196   198   ar
   199   197   199   ar
   200   198   199   ar
   201   199   200    1
   202   200   202    1
   203   203   204    1
   204   203   209    1
   205   204   205    1
   206   204   207    1
   207   205   210   am
   208   205   206    2
   209   207   208    1
   210   208   209    1
   211   210   211    1
   212   210   218    1
   213   211   212    1
   214   211   214    1
   215   212   221   am
   216   212   213    2
   217   214   215    1
   218   215   217   am
   219   215   216    2
   220   217   220    1
   221   217   219    1
   222   221   222    1
   223   221   233    1
   224   222   223    1
   225   222   225    1
   226   223   235   am
   227   223   224    2
   228   225   226    1
   229   226   227   ar
   230   226   228   ar
   231   227   229   ar
   232   228   230   ar
   233   229   231   ar
   234   230   231   ar
   235   231   232    1
   236   232   234    1
   237   235   236    1
   238   235   240    1
   239   236   237    1
   240   236   239    1
   241   237   241   am
   242   237   238    2
   243   241   242    1
   244   241   252    1
   245   242   245    1
   246   242   243    1
   247   243   244    2
   248   243   253   am
   249   245   246    1
   250   246   248   ar
   251   246   247   ar
   252   247   249   ar
   253   248   250   ar
   254   249   251   ar
   255   250   251   ar
   256   253   254    1
   257   253   264    1
   258   254   255    1
   259   254   257    1
   260   255   256    2
   261   257   258    1
   262   258   259    1
   263   259   260    1
   264   260   265    1
   265   260   261    1
   266   261   262    2
   267   261   263    1
   268   262   266    1
   269   262   267    1
   270   263   268    1
   271   263   269    1
