@<TRIPOS>MOLECULE
./2g25/protein.pdb
 231 225 0 0 0
SMALL
GASTEIGER

@<TRIPOS>ATOM
      1 N          -8.8020  -69.0380  -11.6720 N.3     1  LEU1       -0.1231
      2 CA         -7.8130  -69.7120  -10.8350 C.3     1  LEU1        0.1693
      3 C          -7.1870  -70.9760  -11.4330 C.2     1  LEU1        0.2591
      4 O          -5.9710  -71.1650  -11.3470 O.2     1  LEU1       -0.2718
      5 CB         -8.4240  -70.0410   -9.4660 C.3     1  LEU1        0.0284
      6 CG         -8.7200  -68.8450   -8.5490 C.3     1  LEU1        0.0019
      7 CD2        -9.6580  -69.2800   -7.4240 C.3     1  LEU1        0.0001
      8 CD1        -7.4300  -68.3050   -7.9720 C.3     1  LEU1        0.0001
      9 N          -8.0060  -71.8380  -12.0290 N.am    2  GLU2       -0.1979
     10 CA         -7.5080  -73.0790  -12.6290 C.3     2  GLU2        0.1600
     11 C          -6.5690  -72.7970  -13.7960 C.2     2  GLU2        0.2287
     12 O          -5.4840  -73.3660  -13.8840 O.2     2  GLU2       -0.2864
     13 CB         -8.6750  -73.9380  -13.1200 C.3     2  GLU2        0.0356
     14 CG         -8.2750  -75.3340  -13.5910 C.3     2  GLU2        0.0439
     15 CD         -7.8830  -75.3860  -15.0730 C.2     2  GLU2        0.0504
     16 OE1        -8.2540  -74.4590  -15.8320 O.co2   2  GLU2       -0.5492
     17 OE2        -7.2010  -76.3650  -15.4710 O.co2   2  GLU2       -0.5492
     18 N          -4.9820  -70.0010  -14.4220 N.3     1  GLU1       -0.1231
     19 CA         -3.8020  -69.2950  -13.9270 C.3     1  GLU1        0.1697
     20 C          -2.7880  -70.2690  -13.3230 C.2     1  GLU1        0.2592
     21 O          -1.5780  -70.0450  -13.3880 O.2     1  GLU1       -0.2718
     22 CB         -4.2080  -68.2370  -12.8940 C.3     1  GLU1        0.0343
     23 CG         -4.8620  -66.9950  -13.5160 C.3     1  GLU1        0.0437
     24 CD         -5.3630  -65.9860  -12.4870 C.2     1  GLU1        0.0504
     25 OE2        -5.1790  -66.2300  -11.2770 O.co2   1  GLU1       -0.5492
     26 OE1        -5.9410  -64.9450  -12.8930 O.co2   1  GLU1       -0.5492
     27 N          -3.2730  -71.3590  -12.7460 N.am    2  ARG2       -0.1980
     28 CA         -2.3730  -72.3400  -12.1550 C.3     2  ARG2        0.1597
     29 C          -1.6260  -73.0950  -13.2570 C.2     2  ARG2        0.2287
     30 O          -0.4470  -73.4300  -13.1100 O.2     2  ARG2       -0.2864
     31 CB         -3.1550  -73.3240  -11.2800 C.3     2  ARG2        0.0334
     32 CG         -2.3280  -73.9660  -10.1840 C.3     2  ARG2        0.0492
     33 CD         -1.9260  -75.3710  -10.5720 C.3     2  ARG2        0.2205
     34 NE         -1.2760  -76.0860   -9.4750 N.pl3   2  ARG2       -0.0865
     35 CZ         -1.0260  -77.3930   -9.4860 C.cat   2  ARG2        0.5346
     36 NH1        -1.3720  -78.1210  -10.5390 N.pl3   2  ARG2        0.1354
     37 NH2        -0.4350  -77.9730   -8.4480 N.pl3   2  ARG2        0.1354
     38 N           0.9930  -70.7420  -14.4000 N.3     1  ARG1       -0.1245
     39 CA          1.9530  -70.6440  -13.3180 C.3     1  ARG1        0.1563
     40 C           2.8180  -71.8960  -13.1630 C.2     1  ARG1        0.2260
     41 O           3.9970  -71.7950  -12.8450 O.2     1  ARG1       -0.2867
     42 CB          1.2200  -70.3430  -12.0110 C.3     1  ARG1        0.0307
     43 CG          2.1200  -70.2670  -10.8050 C.3     1  ARG1        0.0489
     44 CD          1.4340  -69.5530   -9.6650 C.3     1  ARG1        0.2205
     45 NE          0.3680  -70.3490   -9.0640 N.pl3   1  ARG1       -0.0865
     46 CZ         -0.9320  -70.1010   -9.2240 C.cat   1  ARG1        0.5346
     47 NH1        -1.3230  -69.0750   -9.9720 N.pl3   1  ARG1        0.1354
     48 NH2        -1.8410  -70.8590   -8.6190 N.pl3   1  ARG1        0.1354
     49 N           6.8960  -72.0740  -13.4340 N.3     1  ARG1       -0.1245
     50 CA          7.6500  -72.7430  -12.3800 C.3     1  ARG1        0.1563
     51 C           8.6010  -73.7330  -13.0410 C.2     1  ARG1        0.2260
     52 O           9.8120  -73.7220  -12.7880 O.2     1  ARG1       -0.2867
     53 CB          6.7210  -73.5320  -11.4540 C.3     1  ARG1        0.0307
     54 CG          5.7900  -72.7200  -10.5810 C.3     1  ARG1        0.0489
     55 CD          5.1700  -73.6120   -9.5240 C.3     1  ARG1        0.2205
     56 NE          4.1530  -72.9270   -8.7340 N.pl3   1  ARG1       -0.0865
     57 CZ          4.3730  -72.3740   -7.5460 C.cat   1  ARG1        0.5346
     58 NH1         5.5810  -72.4160   -6.9950 N.pl3   1  ARG1        0.1354
     59 NH2         3.3830  -71.7690   -6.9030 N.pl3   1  ARG1        0.1354
     60 N          10.3280  -70.5130   -5.8270 N.3     1  GLN1       -0.1245
     61 CA          9.2870  -71.4890   -5.5150 C.3     1  GLN1        0.1566
     62 C           8.3520  -70.9760   -4.4180 C.2     1  GLN1        0.2260
     63 O           7.1350  -71.1450   -4.4980 O.2     1  GLN1       -0.2867
     64 CB          9.9160  -72.8110   -5.0700 C.3     1  GLN1        0.0367
     65 CG         10.1450  -73.8020   -6.2150 C.3     1  GLN1        0.0905
     66 CD          8.8680  -74.1680   -6.9530 C.2     1  GLN1        0.2608
     67 OE1         8.4830  -73.5120   -7.9280 O.2     1  GLN1       -0.2717
     68 NE2         8.2080  -75.2300   -6.5000 N.am    1  GLN1       -0.0878
     69 N           3.5650  -67.5580   -6.6950 N.3     1  THR1       -0.1218
     70 CA          2.1480  -67.1930   -6.7150 C.3     1  THR1        0.1862
     71 C           1.9040  -65.7130   -6.3980 C.2     1  THR1        0.2287
     72 O           0.9550  -65.1090   -6.9170 O.2     1  THR1       -0.2866
     73 CB          1.3330  -68.0610   -5.7250 C.3     1  THR1        0.1770
     74 OG1         1.7320  -69.4340   -5.8540 O.3     1  THR1       -0.2211
     75 CG2        -0.1710  -67.9370   -6.0180 C.3     1  THR1        0.0375
     76 N          -3.9840  -69.8470    4.3130 N.3     1  GLY1       -0.1210
     77 CA         -4.8170  -70.0010    3.1350 C.3     1  GLY1        0.1956
     78 C          -6.2650  -70.2760    3.5050 C.2     1  GLY1        0.2613
     79 O          -6.6180  -70.3470    4.6880 O.2     1  GLY1       -0.2717
     80 N          -7.0970  -70.4410    2.4800 N.am    2  SER2       -0.1938
     81 CA         -8.5260  -70.6980    2.6370 C.3     2  SER2        0.2055
     82 C          -8.8760  -71.9720    3.3980 C.2     2  SER2        0.2642
     83 O          -9.8990  -72.0290    4.0710 O.2     2  SER2       -0.2714
     84 CB         -9.1920  -70.7350    1.2660 C.3     2  SER2        0.2130
     85 OG         -8.9540  -69.5330    0.5580 O.3     2  SER2       -0.2179
     86 N          -8.0330  -72.9910    3.2870 N.am    3  ARG3       -0.1977
     87 CA         -8.2630  -74.2660    3.9680 C.3     3  ARG3        0.1597
     88 C          -8.3540  -74.1250    5.4900 C.2     3  ARG3        0.2287
     89 O          -8.9210  -74.9920    6.1660 O.2     3  ARG3       -0.2864
     90 CB         -7.1360  -75.2520    3.6300 C.3     3  ARG3        0.0334
     91 CG         -7.5590  -76.4400    2.7710 C.3     3  ARG3        0.0492
     92 CD         -6.3910  -76.9910    1.9500 C.3     3  ARG3        0.2205
     93 NE         -6.6390  -76.8610    0.5160 N.pl3   3  ARG3       -0.0865
     94 CZ         -5.7510  -77.1410   -0.4330 C.cat   3  ARG3        0.5346
     95 NH2        -4.5350  -77.5710   -0.1120 N.pl3   3  ARG3        0.1354
     96 NH1        -6.0800  -76.9800   -1.7090 N.pl3   3  ARG3        0.1354
     97 N           6.4770  -77.8500    7.9560 N.3     1  LYS1       -0.1245
     98 CA          6.3280  -78.0210    6.5220 C.3     1  LYS1        0.1561
     99 C           7.4960  -78.7500    5.8680 C.2     1  LYS1        0.2260
    100 O           7.5470  -78.8880    4.6480 O.2     1  LYS1       -0.2867
    101 CB          6.1010  -76.6650    5.8560 C.3     1  LYS1        0.0271
    102 CG          4.6760  -76.1370    6.0360 C.3     1  LYS1        0.0035
    103 CD          3.6280  -77.1750    5.6290 C.3     1  LYS1        0.0206
    104 CE          2.2570  -76.5410    5.4000 C.3     1  LYS1        0.1093
    105 NZ          1.2280  -77.5500    4.9970 N.3     1  LYS1       -0.1314
    106 N          -1.8780  -81.9060    6.1570 N.3     1  TRP1       -0.1227
    107 CA         -0.7350  -81.4840    5.3660 C.3     1  TRP1        0.1734
    108 C          -1.1780  -80.5320    4.2610 C.2     1  TRP1        0.2595
    109 O          -0.3950  -79.6970    3.8040 O.2     1  TRP1       -0.2718
    110 CB         -0.0630  -82.7170    4.7510 C.3     1  TRP1        0.0527
    111 CG          1.3330  -82.4930    4.2630 C.2     1  TRP1       -0.0139
    112 CD1         1.8010  -82.7170    3.0030 C.2     1  TRP1        0.0907
    113 CD2         2.4490  -82.0170    5.0270 C.3     1  TRP1        0.0819
    114 NE1         3.1380  -82.4140    2.9320 N.2     1  TRP1       -0.2482
    115 CE2         3.5620  -81.9820    4.1610 C.2     1  TRP1        0.0665
    116 CE3         2.6170  -81.6180    6.3580 C.2     1  TRP1       -0.0164
    117 CZ2         4.8280  -81.5630    4.5830 C.2     1  TRP1        0.0153
    118 CZ3         3.8790  -81.2040    6.7770 C.2     1  TRP1       -0.0038
    119 CH2         4.9640  -81.1790    5.8920 C.2     1  TRP1        0.0009
    120 N          -2.4360  -80.6640    3.8450 N.am    2  ALA2       -0.1966
    121 CA         -2.9980  -79.8380    2.7770 C.3     2  ALA2        0.1728
    122 C          -3.1940  -78.3780    3.1570 C.2     2  ALA2        0.2616
    123 O          -3.2930  -77.5200    2.2780 O.2     2  ALA2       -0.2715
    124 CB         -4.3200  -80.4260    2.3030 C.3     2  ALA2        0.0334
    125 N          -3.2680  -78.0970    4.4570 N.am    3  LEU3       -0.1963
    126 CA         -3.4400  -76.7230    4.9310 C.3     3  LEU3        0.1728
    127 C          -2.2600  -75.9080    4.4080 C.2     3  LEU3        0.2616
    128 O          -1.1070  -76.2870    4.6190 O.2     3  LEU3       -0.2715
    129 CB         -3.4560  -76.6860    6.4620 C.3     3  LEU3        0.0311
    130 CG         -4.6910  -77.2500    7.1760 C.3     3  LEU3        0.0022
    131 CD2        -4.4060  -77.3720    8.6560 C.3     3  LEU3        0.0001
    132 CD1        -5.8920  -76.3540    6.9470 C.3     3  LEU3        0.0001
    133 N          -2.5400  -74.8010    3.7230 N.am    4  ASN4       -0.1958
    134 CA         -1.4640  -73.9740    3.1780 C.3     4  ASN4        0.1819
    135 C          -1.3440  -72.5950    3.8260 C.2     4  ASN4        0.2621
    136 O          -2.2670  -72.1100    4.4970 O.2     4  ASN4       -0.2715
    137 CB         -1.6160  -73.8170    1.6500 C.3     4  ASN4        0.1195
    138 CG         -0.2720  -73.9830    0.8910 C.2     4  ASN4        0.2630
    139 OD1         0.8130  -73.7050    1.4310 O.2     4  ASN4       -0.2716
    140 ND2        -0.3520  -74.4360   -0.3660 N.am    4  ASN4       -0.0877
    141 N          -0.1810  -71.9780    3.6240 N.am    5  ARG5       -0.1977
    142 CA          0.1000  -70.6560    4.1590 C.3     5  ARG5        0.1597
    143 C          -0.4970  -69.6290    3.2130 C.2     5  ARG5        0.2287
    144 O          -0.6150  -69.8770    2.0120 O.2     5  ARG5       -0.2864
    145 CB          1.6090  -70.4580    4.3010 C.3     5  ARG5        0.0334
    146 CG          2.2830  -71.6240    5.0060 C.3     5  ARG5        0.0492
    147 CD          3.6630  -71.2710    5.5370 C.3     5  ARG5        0.2205
    148 NE          4.0840  -72.2210    6.5610 N.pl3   5  ARG5       -0.0865
    149 CZ          5.3450  -72.4950    6.8690 C.cat   5  ARG5        0.5346
    150 NH1         6.3360  -71.8890    6.2290 N.pl3   5  ARG5        0.1354
    151 NH2         5.6150  -73.3780    7.8260 N.pl3   5  ARG5        0.1354
    152 N           0.5630  -66.9480    1.8010 N.3     1  GLY1       -0.1210
    153 CA          1.3560  -66.5170    0.6670 C.3     1  GLY1        0.1956
    154 C           1.2890  -67.4740   -0.5090 C.2     1  GLY1        0.2612
    155 O           1.8800  -67.2180   -1.5550 O.2     1  GLY1       -0.2717
    156 N           0.5790  -68.5860   -0.3520 N.am    2  HIS2       -0.1961
    157 CA          0.4500  -69.5450   -1.4430 C.3     2  HIS2        0.1784
    158 C          -0.9780  -69.5880   -1.9890 C.2     2  HIS2        0.2620
    159 O          -1.2590  -70.3120   -2.9400 O.2     2  HIS2       -0.2715
    160 CB          0.8830  -70.9440   -0.9750 C.3     2  HIS2        0.0745
    161 CG          2.3530  -71.0580   -0.7120 C.2     2  HIS2        0.0653
    162 ND1         3.2850  -71.1370   -1.7230 N.2     2  HIS2       -0.2310
    163 CD2         3.0540  -71.0680    0.4470 C.3     2  HIS2        0.1683
    164 CE1         4.4970  -71.1880   -1.2000 C.2     2  HIS2        0.1939
    165 NE2         4.3840  -71.1500    0.1150 N.2     2  HIS2       -0.2440
    166 N          -1.8670  -68.8010   -1.3900 N.am    3  ASP3       -0.1960
    167 CA         -3.2700  -68.7450   -1.7970 C.3     3  ASP3        0.1771
    168 C          -3.5710  -67.4610   -2.5660 C.2     3  ASP3        0.2500
    169 O          -3.6270  -66.3830   -1.9830 O.2     3  ASP3       -0.2727
    170 CB         -4.1810  -68.8450   -0.5620 C.3     3  ASP3        0.0727
    171 CG         -5.6570  -68.9720   -0.9260 C.2     3  ASP3        0.0526
    172 OD1        -6.0550  -68.5390   -2.0280 O.co2   3  ASP3       -0.5491
    173 OD2        -6.4280  -69.5060   -0.1050 O.co2   3  ASP3       -0.5491
    174 N          -3.7980  -67.5710   -3.8890 N.am    4  PRO4       -0.2490
    175 CA         -4.0910  -66.4130   -4.7390 C.3     4  PRO4        0.1619
    176 C          -5.2170  -65.5250   -4.2160 C.2     4  PRO4        0.2605
    177 O          -5.1950  -64.3080   -4.4180 O.2     4  PRO4       -0.2715
    178 CB         -4.4320  -67.0150   -6.1060 C.3     4  PRO4        0.0570
    179 CG         -4.3030  -68.4830   -5.9780 C.2     4  PRO4       -0.0077
    180 CD         -3.8010  -68.8420   -4.6310 C.2     4  PRO4        0.0634
    181 N          -6.1930  -66.1370   -3.5500 N.am    5  LYS5       -0.1978
    182 CA         -7.3300  -65.4010   -3.0060 C.3     5  LYS5        0.1596
    183 C          -6.9090  -64.5030   -1.8590 C.2     5  LYS5        0.2287
    184 O          -7.3650  -63.3630   -1.7660 O.2     5  LYS5       -0.2864
    185 CB         -8.4110  -66.3680   -2.5360 C.3     5  LYS5        0.0298
    186 CG         -9.3360  -66.8100   -3.6450 C.3     5  LYS5        0.0038
    187 CD         -9.4380  -68.3160   -3.6710 C.3     5  LYS5        0.0206
    188 CE        -10.8820  -68.7610   -3.5730 C.3     5  LYS5        0.1093
    189 NZ        -11.0700  -69.7710   -2.5020 N.3     5  LYS5       -0.1314
    190 N           9.0750  -74.5500   -1.6110 N.3     1  TYR1       -0.1241
    191 CA          7.7190  -75.0540   -1.7640 C.3     1  TYR1        0.1605
    192 C           7.5500  -75.9920   -2.9630 C.2     1  TYR1        0.2264
    193 O           7.8920  -75.6390   -4.0930 O.2     1  TYR1       -0.2867
    194 CB          6.7540  -73.8620   -1.8900 C.3     1  TYR1        0.0534
    195 CG          5.3160  -74.2040   -2.2810 C.ar    1  TYR1       -0.0201
    196 CD2         4.4060  -74.6820   -1.3350 C.ar    1  TYR1       -0.0009
    197 CD1         4.8580  -73.9980   -3.5860 C.ar    1  TYR1       -0.0009
    198 CE2         3.0750  -74.9400   -1.6820 C.ar    1  TYR1        0.0417
    199 CE1         3.5360  -74.2530   -3.9400 C.ar    1  TYR1        0.0417
    200 CZ          2.6520  -74.7220   -2.9830 C.ar    1  TYR1        0.1957
    201 OH          1.3420  -74.9670   -3.3280 O.3     1  TYR1       -0.2866
    202 N           3.8500  -82.9310   -8.8560 N.3     1  ARG1       -0.1231
    203 CA          3.3840  -81.9650   -7.8750 C.3     1  ARG1        0.1694
    204 C           2.5840  -80.8060   -8.4680 C.2     1  ARG1        0.2592
    205 O           1.5100  -80.4700   -7.9730 O.2     1  ARG1       -0.2718
    206 CB          4.5710  -81.4070   -7.0970 C.3     1  ARG1        0.0321
    207 CG          4.2340  -80.2250   -6.2170 C.3     1  ARG1        0.0489
    208 CD          3.4370  -80.6640   -5.0070 C.3     1  ARG1        0.2205
    209 NE          3.1170  -79.5410   -4.1280 N.pl3   1  ARG1       -0.0865
    210 CZ          2.1470  -78.6630   -4.3580 C.cat   1  ARG1        0.5346
    211 NH1         1.3910  -78.7670   -5.4420 N.pl3   1  ARG1        0.1354
    212 NH2         1.9330  -77.6790   -3.4980 N.pl3   1  ARG1        0.1354
    213 N           3.1060  -80.1950   -9.5210 N.am    2  PHE2       -0.1962
    214 CA          2.4240  -79.0670  -10.1340 C.3     2  PHE2        0.1771
    215 C           1.7300  -79.4390  -11.4360 C.2     2  PHE2        0.2619
    216 O           1.3200  -78.5740  -12.2150 O.2     2  PHE2       -0.2715
    217 CB          3.4220  -77.9220  -10.3340 C.3     2  PHE2        0.0574
    218 CG          3.9170  -77.3400   -9.0370 C.ar    2  PHE2       -0.0200
    219 CD2         3.1130  -76.4770   -8.2960 C.ar    2  PHE2       -0.0042
    220 CD1         5.1570  -77.7140   -8.5170 C.ar    2  PHE2       -0.0042
    221 CE2         3.5330  -75.9990   -7.0500 C.ar    2  PHE2       -0.0003
    222 CE1         5.5870  -77.2380   -7.2660 C.ar    2  PHE2       -0.0003
    223 CZ          4.7690  -76.3830   -6.5330 C.ar    2  PHE2       -0.0000
    224 N           1.5990  -80.7430  -11.6670 N.am    3  ASN3       -0.1972
    225 CA          0.9200  -81.2340  -12.8520 C.3     3  ASN3        0.1688
    226 C           1.4530  -80.6150  -14.1220 C.2     3  ASN3        0.2292
    227 O           0.6760  -80.1880  -14.9750 O.2     3  ASN3       -0.2864
    228 CB         -0.5760  -80.9370  -12.7400 C.3     3  ASN3        0.1181
    229 CG         -1.2080  -81.5970  -11.5330 C.2     3  ASN3        0.2629
    230 OD1        -1.1880  -81.0510  -10.4270 O.2     3  ASN3       -0.2716
    231 ND2        -1.7690  -82.7840  -11.7360 N.am    3  ASN3       -0.0877
@<TRIPOS>UNITY_ATOM_ATTR
16 1
charge -1
25 1
charge -1
172 1
charge -1
@<TRIPOS>BOND
     1     1     2    1
     2     2     3    1
     3     2     5    1
     4     3     9   am
     5     3     4    2
     6     5     6    1
     7     6     8    1
     8     6     7    1
     9     9    10    1
    10    10    11    1
    11    10    13    1
    12    11    12    2
    13    13    14    1
    14    14    15    1
    15    15    16   ar
    16    15    17   ar
    17    18    19    1
    18    19    20    1
    19    19    22    1
    20    20    21    2
    21    20    27   am
    22    22    23    1
    23    23    24    1
    24    24    26   ar
    25    24    25   ar
    26    27    28    1
    27    28    29    1
    28    28    31    1
    29    29    30    2
    30    31    32    1
    31    32    33    1
    32    33    34    1
    33    34    35    2
    34    35    36    1
    35    35    37    1
    36    38    39    1
    37    39    40    1
    38    39    42    1
    39    40    41    2
    40    42    43    1
    41    43    44    1
    42    44    45    1
    43    45    46    2
    44    46    47    1
    45    46    48    1
    46    49    50    1
    47    50    51    1
    48    50    53    1
    49    51    52    2
    50    53    54    1
    51    54    55    1
    52    55    56    1
    53    56    57    2
    54    57    58    1
    55    57    59    1
    56    60    61    1
    57    61    64    1
    58    61    62    1
    59    62    63    2
    60    64    65    1
    61    65    66    1
    62    66    67    2
    63    66    68   am
    64    69    70    1
    65    70    71    1
    66    70    73    1
    67    71    72    2
    68    73    75    1
    69    73    74    1
    70    76    77    1
    71    77    78    1
    72    78    80   am
    73    78    79    2
    74    80    81    1
    75    81    84    1
    76    81    82    1
    77    82    86   am
    78    82    83    2
    79    84    85    1
    80    86    87    1
    81    87    90    1
    82    87    88    1
    83    88    89    2
    84    90    91    1
    85    91    92    1
    86    92    93    1
    87    93    94    2
    88    94    96    1
    89    94    95    1
    90    97    98    1
    91    98   101    1
    92    98    99    1
    93    99   100    2
    94   101   102    1
    95   102   103    1
    96   103   104    1
    97   104   105    1
    98   106   107    1
    99   107   108    1
   100   107   110    1
   101   108   109    2
   102   108   120   am
   103   110   111    1
   104   111   112    2
   105   111   113    1
   106   112   114    1
   107   113   115    1
   108   113   116    1
   109   114   115    2
   110   115   117    1
   111   116   118    2
   112   117   119    2
   113   118   119    1
   114   120   121    1
   115   121   124    1
   116   121   122    1
   117   122   123    2
   118   122   125   am
   119   125   126    1
   120   126   127    1
   121   126   129    1
   122   127   133   am
   123   127   128    2
   124   129   130    1
   125   130   132    1
   126   130   131    1
   127   133   134    1
   128   134   137    1
   129   134   135    1
   130   135   141   am
   131   135   136    2
   132   137   138    1
   133   138   140   am
   134   138   139    2
   135   141   142    1
   136   142   143    1
   137   142   145    1
   138   143   144    2
   139   145   146    1
   140   146   147    1
   141   147   148    1
   142   148   149    2
   143   149   150    1
   144   149   151    1
   145   152   153    1
   146   153   154    1
   147   154   155    2
   148   154   156   am
   149   156   157    1
   150   157   158    1
   151   157   160    1
   152   158   159    2
   153   158   166   am
   154   160   161    1
   155   161   162    2
   156   161   163    1
   157   162   164    1
   158   163   165    1
   159   164   165    2
   160   166   167    1
   161   167   168    1
   162   167   170    1
   163   168   174   am
   164   168   169    2
   165   170   171    1
   166   171   172   ar
   167   171   173   ar
   168   174   175    1
   169   174   180    1
   170   175   178    1
   171   175   176    1
   172   176   177    2
   173   176   181   am
   174   178   179    1
   175   179   180    2
   176   181   182    1
   177   182   185    1
   178   182   183    1
   179   183   184    2
   180   185   186    1
   181   186   187    1
   182   187   188    1
   183   188   189    1
   184   190   191    1
   185   191   192    1
   186   191   194    1
   187   192   193    2
   188   194   195    1
   189   195   197   ar
   190   195   196   ar
   191   196   198   ar
   192   197   199   ar
   193   198   200   ar
   194   199   200   ar
   195   200   201    1
   196   202   203    1
   197   203   204    1
   198   203   206    1
   199   204   213   am
   200   204   205    2
   201   206   207    1
   202   207   208    1
   203   208   209    1
   204   209   210    2
   205   210   211    1
   206   210   212    1
   207   213   214    1
   208   214   215    1
   209   214   217    1
   210   215   216    2
   211   215   224   am
   212   217   218    1
   213   218   220   ar
   214   218   219   ar
   215   219   221   ar
   216   220   222   ar
   217   221   223   ar
   218   222   223   ar
   219   224   225    1
   220   225   226    1
   221   225   228    1
   222   226   227    2
   223   228   229    1
   224   229   231   am
   225   229   230    2
