@<TRIPOS>MOLECULE
./1kpe/protein.pdb
 202 198 0 0 0
SMALL
GASTEIGER

@<TRIPOS>ATOM
      1 N          34.2480   25.3020   55.5670 N.3     1  ILE1       -0.1231
      2 CA         35.1280   25.4810   56.7250 C.3     1  ILE1        0.1692
      3 C          34.5420   26.6210   57.5700 C.2     1  ILE1        0.2592
      4 O          34.4470   26.5390   58.8060 O.2     1  ILE1       -0.2718
      5 CB         36.5170   25.9890   56.2520 C.3     1  ILE1        0.0266
      6 CG1        37.1190   25.0060   55.2650 C.3     1  ILE1        0.0019
      7 CG2        37.4520   26.2010   57.4290 C.3     1  ILE1        0.0020
      8 CD1        38.2690   25.5800   54.4710 C.3     1  ILE1        0.0001
      9 N          34.1930   27.7060   56.8780 N.am    2  PHE2       -0.1976
     10 CA         33.6270   28.8750   57.5200 C.3     2  PHE2        0.1639
     11 C          32.2770   28.5380   58.1510 C.2     2  PHE2        0.2290
     12 O          31.9480   29.0570   59.2180 O.2     2  PHE2       -0.2864
     13 CB         33.5410   30.0270   56.5310 C.3     2  PHE2        0.0560
     14 CG         34.8970   30.5280   56.0620 C.ar    2  PHE2       -0.0200
     15 CD2        36.1000   29.9970   56.5840 C.ar    2  PHE2       -0.0042
     16 CD1        34.9770   31.5510   55.1200 C.ar    2  PHE2       -0.0042
     17 CE2        37.3520   30.4910   56.1690 C.ar    2  PHE2       -0.0003
     18 CE1        36.2310   32.0500   54.7030 C.ar    2  PHE2       -0.0003
     19 CZ         37.4110   31.5190   55.2250 C.ar    2  PHE2       -0.0000
     20 N          33.2000   27.1170   61.3960 N.3     1  ILE1       -0.1245
     21 CA         33.7240   28.1060   62.3220 C.3     1  ILE1        0.1561
     22 C          32.5810   28.8950   62.9250 C.2     1  ILE1        0.2260
     23 O          32.6160   29.2550   64.1140 O.2     1  ILE1       -0.2867
     24 CB         34.6740   29.0660   61.6190 C.3     1  ILE1        0.0252
     25 CG1        35.9460   28.3130   61.2710 C.3     1  ILE1        0.0019
     26 CG2        34.9450   30.2960   62.4790 C.3     1  ILE1        0.0019
     27 CD1        36.9960   29.1760   60.7030 C.3     1  ILE1        0.0001
     28 N          34.8870   24.1420   64.8680 N.3     1  ILE1       -0.1231
     29 CA         36.3260   24.1780   64.8050 C.3     1  ILE1        0.1678
     30 C          36.6670   25.5430   65.3450 C.2     1  ILE1        0.2434
     31 O          35.9310   26.5100   65.1300 O.2     1  ILE1       -0.2733
     32 CB         36.8490   23.9800   63.3830 C.3     1  ILE1        0.0265
     33 CG1        36.1890   24.9570   62.4040 C.3     1  ILE1        0.0019
     34 CG2        36.6720   22.5160   62.9740 C.3     1  ILE1        0.0020
     35 CD1        36.7220   24.8410   60.9860 C.3     1  ILE1        0.0001
     36 N          37.7900   25.6430   66.0520 N.am    2  PRO2       -0.2718
     37 CA         38.2740   26.8700   66.6670 C.3     2  PRO2        0.1535
     38 C          38.6940   27.9830   65.7120 C.2     2  PRO2        0.2598
     39 O          38.9850   27.7470   64.5230 O.2     2  PRO2       -0.2715
     40 CB         39.4360   26.3990   67.5480 C.3     2  PRO2        0.0310
     41 CG         39.4050   24.9210   67.4880 C.3     2  PRO2        0.0237
     42 CD         38.7890   24.5800   66.1770 C.3     2  PRO2        0.0939
     43 N          38.6710   29.2000   66.2520 N.am    3  ALA3       -0.1964
     44 CA         39.0280   30.4070   65.5300 C.3     3  ALA3        0.1728
     45 C          39.2010   31.5080   66.5750 C.2     3  ALA3        0.2616
     46 O          38.4930   31.5000   67.5830 O.2     3  ALA3       -0.2715
     47 CB         37.8960   30.7900   64.5590 C.3     3  ALA3        0.0334
     48 N          40.1560   32.4180   66.3730 N.am    4  LYS4       -0.1977
     49 CA         40.3480   33.5270   67.3020 C.3     4  LYS4        0.1596
     50 C          39.4740   34.6710   66.8330 C.2     4  LYS4        0.2287
     51 O          39.7790   35.3770   65.8660 O.2     4  LYS4       -0.2864
     52 CB         41.8050   33.9600   67.3980 C.3     4  LYS4        0.0298
     53 CG         42.3080   33.9480   68.8280 C.3     4  LYS4        0.0038
     54 CD         43.7720   34.3830   68.9790 C.3     4  LYS4        0.0206
     55 CE         43.8950   35.8710   69.2700 C.3     4  LYS4        0.1093
     56 NZ         45.2910   36.2350   69.6600 N.3     4  LYS4       -0.1314
     57 N          37.4880   37.0240   62.4990 N.3     1  PHE1       -0.1227
     58 CA         38.4990   36.1980   63.1380 C.3     1  PHE1        0.1736
     59 C          39.8270   36.2780   62.4140 C.2     1  PHE1        0.2595
     60 O          39.8780   36.6480   61.2340 O.2     1  PHE1       -0.2718
     61 CB         38.0230   34.7390   63.2390 C.3     1  PHE1        0.0547
     62 CG         37.5890   34.1130   61.9180 C.ar    1  PHE1       -0.0202
     63 CD2        36.2790   34.2810   61.4300 C.ar    1  PHE1       -0.0042
     64 CD1        38.4820   33.3450   61.1640 C.ar    1  PHE1       -0.0042
     65 CE2        35.8740   33.6890   60.1990 C.ar    1  PHE1       -0.0003
     66 CE1        38.0770   32.7580   59.9410 C.ar    1  PHE1       -0.0003
     67 CZ         36.7750   32.9340   59.4660 C.ar    1  PHE1       -0.0000
     68 N          40.9040   35.9010   63.1110 N.am    2  HIS2       -0.1962
     69 CA         42.2660   35.9220   62.5400 C.3     2  HIS2        0.1784
     70 C          42.5070   34.8020   61.5640 C.2     2  HIS2        0.2620
     71 O          42.1030   33.6520   61.7880 O.2     2  HIS2       -0.2715
     72 CB         43.3560   35.8780   63.6260 C.3     2  HIS2        0.0745
     73 CG         43.3990   37.1040   64.4720 C.2     2  HIS2        0.0653
     74 ND1        43.9310   38.2980   64.0340 N.2     2  HIS2       -0.2310
     75 CD2        42.9240   37.3400   65.7200 C.3     2  HIS2        0.1683
     76 CE1        43.7880   39.2160   64.9750 C.2     2  HIS2        0.1939
     77 NE2        43.1780   38.6580   66.0080 N.2     2  HIS2       -0.2440
     78 N          43.2120   35.1350   60.4840 N.am    3  ASP3       -0.1959
     79 CA         43.5100   34.1640   59.4530 C.3     3  ASP3        0.1783
     80 C          44.6540   33.2840   59.9780 C.2     3  ASP3        0.2620
     81 O          45.6280   33.8130   60.5230 O.2     3  ASP3       -0.2715
     82 CB         43.9520   34.9310   58.1810 C.3     3  ASP3        0.0728
     83 CG         43.8790   34.0870   56.9350 C.2     3  ASP3        0.0526
     84 OD2        44.6200   33.0860   56.8450 O.co2   3  ASP3       -0.5491
     85 OD1        43.0760   34.4420   56.0430 O.co2   3  ASP3       -0.5491
     86 N          44.5530   31.9630   59.8050 N.am    4  ILE4       -0.1963
     87 CA         45.6230   31.0690   60.2610 C.3     4  ILE4        0.1727
     88 C          46.8900   31.0210   59.3660 C.2     4  ILE4        0.2617
     89 O          47.8890   30.3930   59.7390 O.2     4  ILE4       -0.2715
     90 CB         45.1470   29.6340   60.5380 C.3     4  ILE4        0.0290
     91 CG1        44.6920   28.9720   59.2500 C.3     4  ILE4        0.0022
     92 CG2        44.0830   29.6240   61.6440 C.3     4  ILE4        0.0023
     93 CD1        44.5530   27.4950   59.4110 C.3     4  ILE4        0.0001
     94 N          46.8450   31.6760   58.2060 N.am    5  SER5       -0.1936
     95 CA         48.0080   31.7800   57.3080 C.3     5  SER5        0.2040
     96 C          48.1040   33.2700   56.9980 C.2     5  SER5        0.2485
     97 O          47.9130   33.6830   55.8510 O.2     5  SER5       -0.2729
     98 CB         47.7880   31.0340   55.9890 C.3     5  SER5        0.2129
     99 OG         47.5950   29.6560   56.2270 O.3     5  SER5       -0.2179
    100 N          48.3900   34.1060   58.0090 N.am    6  PRO6       -0.2715
    101 CA         48.4930   35.5570   57.8060 C.3     6  PRO6        0.1536
    102 C          49.4910   35.9760   56.7030 C.2     6  PRO6        0.2598
    103 O          50.5730   35.3990   56.5850 O.2     6  PRO6       -0.2715
    104 CB         48.9190   36.0570   59.1820 C.3     6  PRO6        0.0310
    105 CG         49.7100   34.9330   59.7390 C.3     6  PRO6        0.0237
    106 CD         48.8850   33.7220   59.3510 C.3     6  PRO6        0.0939
    107 N          49.1430   36.9880   55.9090 N.am    7  GLN7       -0.1978
    108 CA         50.0170   37.4460   54.8430 C.3     7  GLN7        0.1601
    109 C          50.5820   38.8060   55.1920 C.2     7  GLN7        0.2287
    110 O          51.2250   39.4650   54.3670 O.2     7  GLN7       -0.2864
    111 CB         49.2790   37.4850   53.5060 C.3     7  GLN7        0.0394
    112 CG         48.7440   36.1400   53.0670 C.3     7  GLN7        0.0908
    113 CD         49.8550   35.1370   52.8500 C.2     7  GLN7        0.2608
    114 OE1        50.7840   35.3950   52.0910 O.2     7  GLN7       -0.2717
    115 NE2        49.7800   33.9920   53.5170 N.am    7  GLN7       -0.0878
    116 N          46.3330   40.0360   59.9040 N.3     1  HIS1       -0.1241
    117 CA         45.5310   39.5360   58.8190 C.3     1  HIS1        0.1618
    118 C          44.3170   38.7760   59.3720 C.2     1  HIS1        0.2264
    119 O          44.4390   37.6680   59.9250 O.2     1  HIS1       -0.2867
    120 CB         46.4010   38.6910   57.8830 C.3     1  HIS1        0.0704
    121 CG         45.6810   38.1400   56.6840 C.2     1  HIS1        0.0649
    122 ND1        46.2360   37.1980   55.8450 N.2     1  HIS1       -0.2310
    123 CD2        44.4370   38.3630   56.2050 C.3     1  HIS1        0.1683
    124 CE1        45.3730   36.8600   54.9070 C.2     1  HIS1        0.1939
    125 NE2        44.2690   37.5560   55.1030 N.2     1  HIS1       -0.2440
    126 N          39.7850   37.8550   58.8250 N.3     1  LEU1       -0.1245
    127 CA         38.6480   37.7250   57.8960 C.3     1  LEU1        0.1561
    128 C          37.3440   38.1810   58.5620 C.2     1  LEU1        0.2260
    129 O          37.2130   38.1260   59.7910 O.2     1  LEU1       -0.2867
    130 CB         38.4700   36.2640   57.4630 C.3     1  LEU1        0.0270
    131 CG         39.6350   35.6310   56.7180 C.3     1  LEU1        0.0019
    132 CD2        39.5240   34.1350   56.7440 C.3     1  LEU1        0.0001
    133 CD1        39.6160   36.1350   55.3150 C.3     1  LEU1        0.0001
    134 N          40.2600   42.8920   50.8450 N.3     1  VAL1       -0.1245
    135 CA         40.2310   42.0680   49.6580 C.3     1  VAL1        0.1561
    136 C          39.0990   41.0430   49.6890 C.2     1  VAL1        0.2260
    137 O          38.8770   40.3780   50.7160 O.2     1  VAL1       -0.2867
    138 CB         41.5810   41.2490   49.5230 C.3     1  VAL1        0.0252
    139 CG1        41.5810   40.3270   48.3010 C.3     1  VAL1        0.0019
    140 CG2        42.7940   42.2120   49.4820 C.3     1  VAL1        0.0019
    141 N          37.9680   37.9520   47.1620 N.3     1  ASN1       -0.1240
    142 CA         38.4050   37.1020   46.0520 C.3     1  ASN1        0.1653
    143 C          37.2190   36.3900   45.4580 C.2     1  ASN1        0.2266
    144 O          36.4670   35.7880   46.2000 O.2     1  ASN1       -0.2867
    145 CB         39.3740   36.0230   46.5590 C.3     1  ASN1        0.1155
    146 CG         40.7490   36.5820   46.9110 C.2     1  ASN1        0.2627
    147 OD1        41.0810   37.7180   46.5940 O.2     1  ASN1       -0.2716
    148 ND2        41.5490   35.7720   47.5350 N.am    1  ASN1       -0.0877
    149 N          41.3310   33.7320   43.0020 N.3     1  GLY1       -0.1210
    150 CA         42.0580   33.0160   44.0360 C.3     1  GLY1        0.1956
    151 C          41.1930   32.7150   45.2550 C.2     1  GLY1        0.2612
    152 O          41.6750   32.7080   46.3890 O.2     1  GLY1       -0.2717
    153 N          39.8940   32.5390   45.0210 N.am    2  GLN2       -0.1965
    154 CA         38.9540   32.2340   46.0800 C.3     2  GLN2        0.1733
    155 C          39.0560   30.7370   46.2820 C.2     2  GLN2        0.2617
    156 O          38.9520   29.9740   45.3240 O.2     2  GLN2       -0.2715
    157 CB         37.5290   32.5690   45.6530 C.3     2  GLN2        0.0408
    158 CG         36.5510   32.5310   46.7890 C.3     2  GLN2        0.0908
    159 CD         35.1190   32.6590   46.3410 C.2     2  GLN2        0.2608
    160 OE1        34.8400   32.8860   45.1610 O.2     2  GLN2       -0.2717
    161 NE2        34.1970   32.4760   47.2750 N.am    2  GLN2       -0.0878
    162 N          39.4150   30.3160   47.4870 N.am    3  SER3       -0.1936
    163 CA         39.4870   28.8900   47.7750 C.3     3  SER3        0.2055
    164 C          38.3510   28.3970   48.6360 C.2     3  SER3        0.2642
    165 O          37.9620   27.2340   48.5350 O.2     3  SER3       -0.2714
    166 CB         40.8270   28.5100   48.3960 C.3     3  SER3        0.2130
    167 OG         41.3840   29.6090   49.0770 O.3     3  SER3       -0.2179
    168 N          37.8030   29.2750   49.4620 N.am    4  VAL4       -0.1977
    169 CA         36.6980   28.8900   50.3290 C.3     4  VAL4        0.1596
    170 C          35.4390   29.5260   49.7740 C.2     4  VAL4        0.2287
    171 O          35.3550   30.7480   49.6290 O.2     4  VAL4       -0.2864
    172 CB         36.9190   29.3500   51.8040 C.3     4  VAL4        0.0276
    173 CG2        35.7280   28.8940   52.6720 C.3     4  VAL4        0.0022
    174 CG1        38.2840   28.8210   52.3390 C.3     4  VAL4        0.0022
    175 N          34.0350   35.8850   52.0300 N.3     1  HIS1       -0.1241
    176 CA         34.8460   36.5050   53.0360 C.3     1  HIS1        0.1618
    177 C          35.4670   37.7520   52.5480 C.2     1  HIS1        0.2264
    178 O          36.2140   37.8000   51.5660 O.2     1  HIS1       -0.2867
    179 CB         35.9030   35.6120   53.5830 C.3     1  HIS1        0.0704
    180 CG         36.6440   34.8070   52.5790 C.2     1  HIS1        0.0649
    181 ND1        36.0500   33.8370   51.7960 N.2     1  HIS1       -0.2310
    182 CD2        37.9320   34.8490   52.2190 C.3     1  HIS1        0.1683
    183 CE1        36.9850   33.2270   51.0710 C.2     1  HIS1        0.1939
    184 NE2        38.1240   33.8630   51.2850 N.2     1  HIS1       -0.2440
    185 N          38.9950   39.8800   53.3960 N.3     1  HIS1       -0.1241
    186 CA         40.3330   39.8740   53.9780 C.3     1  HIS1        0.1621
    187 C          40.7060   41.2990   54.4030 C.2     1  HIS1        0.2264
    188 O          40.3970   42.2430   53.6820 O.2     1  HIS1       -0.2867
    189 CB         41.4020   39.4330   52.9560 C.3     1  HIS1        0.0745
    190 CG         41.3260   37.9950   52.5470 C.ar    1  HIS1        0.0817
    191 ND1        42.1460   37.0250   53.0760 N.ar    1  HIS1       -0.2268
    192 CD2        40.5720   37.3740   51.6060 C.ar    1  HIS1        0.1154
    193 CE1        41.9060   35.8690   52.4830 C.ar    1  HIS1        0.1986
    194 NE2        40.9560   36.0530   51.5830 N.ar    1  HIS1       -0.2212
    195 N          44.1550   43.1270   55.7220 N.3     1  LEU1       -0.1245
    196 CA         45.5960   42.9090   55.9310 C.3     1  LEU1        0.1561
    197 C          46.2460   44.2190   56.2820 C.2     1  LEU1        0.2260
    198 O          45.9650   45.2630   55.6630 O.2     1  LEU1       -0.2867
    199 CB         46.2770   42.3550   54.6540 C.3     1  LEU1        0.0270
    200 CG         45.7650   41.0650   54.0150 C.3     1  LEU1        0.0019
    201 CD1        44.8440   41.4050   52.8110 C.3     1  LEU1        0.0001
    202 CD2        46.9220   40.2230   53.5920 C.3     1  LEU1        0.0001
@<TRIPOS>UNITY_ATOM_ATTR
84 1
charge -1
@<TRIPOS>BOND
     1     1     2    1
     2     2     5    1
     3     2     3    1
     4     3     9   am
     5     3     4    2
     6     5     6    1
     7     5     7    1
     8     6     8    1
     9     9    10    1
    10    10    13    1
    11    10    11    1
    12    11    12    2
    13    13    14    1
    14    14    16   ar
    15    14    15   ar
    16    15    17   ar
    17    16    18   ar
    18    17    19   ar
    19    18    19   ar
    20    20    21    1
    21    21    24    1
    22    21    22    1
    23    22    23    2
    24    24    25    1
    25    24    26    1
    26    25    27    1
    27    28    29    1
    28    29    32    1
    29    29    30    1
    30    30    31    2
    31    30    36   am
    32    32    33    1
    33    32    34    1
    34    33    35    1
    35    36    42    1
    36    36    37    1
    37    37    38    1
    38    37    40    1
    39    38    39    2
    40    38    43   am
    41    40    41    1
    42    41    42    1
    43    43    44    1
    44    44    47    1
    45    44    45    1
    46    45    48   am
    47    45    46    2
    48    48    49    1
    49    49    50    1
    50    49    52    1
    51    50    51    2
    52    52    53    1
    53    53    54    1
    54    54    55    1
    55    55    56    1
    56    57    58    1
    57    58    59    1
    58    58    61    1
    59    59    60    2
    60    59    68   am
    61    61    62    1
    62    62    64   ar
    63    62    63   ar
    64    63    65   ar
    65    64    66   ar
    66    65    67   ar
    67    66    67   ar
    68    68    69    1
    69    69    70    1
    70    69    72    1
    71    70    78   am
    72    70    71    2
    73    72    73    1
    74    73    74    2
    75    73    75    1
    76    74    76    1
    77    75    77    1
    78    76    77    2
    79    78    79    1
    80    79    82    1
    81    79    80    1
    82    80    86   am
    83    80    81    2
    84    82    83    1
    85    83    85   ar
    86    83    84   ar
    87    86    87    1
    88    87    88    1
    89    87    90    1
    90    88    94   am
    91    88    89    2
    92    90    91    1
    93    90    92    1
    94    91    93    1
    95    94    95    1
    96    95    98    1
    97    95    96    1
    98    96    97    2
    99    96   100   am
   100    98    99    1
   101   100   101    1
   102   100   106    1
   103   101   102    1
   104   101   104    1
   105   102   107   am
   106   102   103    2
   107   104   105    1
   108   105   106    1
   109   107   108    1
   110   108   111    1
   111   108   109    1
   112   109   110    2
   113   111   112    1
   114   112   113    1
   115   113   114    2
   116   113   115   am
   117   116   117    1
   118   117   120    1
   119   117   118    1
   120   118   119    2
   121   120   121    1
   122   121   122    2
   123   121   123    1
   124   122   124    1
   125   123   125    1
   126   124   125    2
   127   126   127    1
   128   127   130    1
   129   127   128    1
   130   128   129    2
   131   130   131    1
   132   131   133    1
   133   131   132    1
   134   134   135    1
   135   135   138    1
   136   135   136    1
   137   136   137    2
   138   138   139    1
   139   138   140    1
   140   141   142    1
   141   142   143    1
   142   142   145    1
   143   143   144    2
   144   145   146    1
   145   146   147    2
   146   146   148   am
   147   149   150    1
   148   150   151    1
   149   151   153   am
   150   151   152    2
   151   153   154    1
   152   154   157    1
   153   154   155    1
   154   155   156    2
   155   155   162   am
   156   157   158    1
   157   158   159    1
   158   159   160    2
   159   159   161   am
   160   162   163    1
   161   163   166    1
   162   163   164    1
   163   164   165    2
   164   164   168   am
   165   166   167    1
   166   168   169    1
   167   169   170    1
   168   169   172    1
   169   170   171    2
   170   172   174    1
   171   172   173    1
   172   175   176    1
   173   176   177    1
   174   176   179    1
   175   177   178    2
   176   179   180    1
   177   180   181    2
   178   180   182    1
   179   181   183    1
   180   182   184    1
   181   183   184    2
   182   185   186    1
   183   186   189    1
   184   186   187    1
   185   187   188    2
   186   189   190    1
   187   190   192   ar
   188   190   191   ar
   189   191   193   ar
   190   192   194   ar
   191   193   194   ar
   192   195   196    1
   193   196   199    1
   194   196   197    1
   195   197   198    2
   196   199   200    1
   197   200   201    1
   198   200   202    1
