@<TRIPOS>MOLECULE
./1j8r/protein.pdb
 330 329 0 0 0
SMALL
GASTEIGER

@<TRIPOS>ATOM
      1 N          19.0800   31.3860   57.5580 N.3     1  TYR1        0.0000
      2 CA         19.9550   32.1470   56.6730 C.3     1  TYR1        0.0000
      3 C          19.6300   31.7790   55.2200 C.2     1  TYR1        0.0000
      4 O          19.9230   30.6680   54.7640 O.2     1  TYR1        0.0000
      5 CB         21.4070   31.8060   56.9990 C.3     1  TYR1        0.0000
      6 CG         21.8530   32.3230   58.3470 C.ar    1  TYR1        0.0000
      7 CD2        21.8040   31.5170   59.4840 C.ar    1  TYR1        0.0000
      8 CD1        22.3400   33.6320   58.4800 C.ar    1  TYR1        0.0000
      9 CE2        22.2410   32.0070   60.7380 C.ar    1  TYR1        0.0000
     10 CE1        22.7800   34.1280   59.7200 C.ar    1  TYR1        0.0000
     11 CZ         22.7290   33.3120   60.8390 C.ar    1  TYR1        0.0000
     12 OH         23.1840   33.7920   62.0600 O.3     1  TYR1        0.0000
     13 N          19.8370   32.0580   51.1130 N.3     1  LEU1        0.0000
     14 CA         20.7390   32.3390   50.0050 C.3     1  LEU1        0.0000
     15 C          19.9500   32.9890   48.8560 C.2     1  LEU1        0.0000
     16 O          18.7450   32.7630   48.7050 O.2     1  LEU1        0.0000
     17 CB         21.4120   31.0480   49.5300 C.3     1  LEU1        0.0000
     18 CG         22.4790   30.4430   50.4550 C.3     1  LEU1        0.0000
     19 CD1        22.8190   29.0510   49.9880 C.3     1  LEU1        0.0000
     20 CD2        23.7360   31.3130   50.4540 C.3     1  LEU1        0.0000
     21 N          21.0420   33.6060   44.9990 N.3     1  ASP1        0.0000
     22 CA         21.7910   33.7640   43.7780 C.3     1  ASP1        0.0000
     23 C          20.8480   33.5040   42.6160 C.2     1  ASP1        0.0000
     24 O          19.7580   32.9650   42.7940 O.2     1  ASP1        0.0000
     25 CB         22.9780   32.7940   43.7650 C.3     1  ASP1        0.0000
     26 CG         22.5610   31.3350   44.0320 C.2     1  ASP1        0.0000
     27 OD1        22.3830   30.5770   43.0420 O.co2   1  ASP1       -0.5000
     28 OD2        22.3990   30.9450   45.2290 O.co2   1  ASP1       -0.5000
     29 N          20.6630   31.8310   38.7640 N.3     1  ASN1        0.0000
     30 CA         21.4210   30.9340   37.9250 C.3     1  ASN1        0.0000
     31 C          20.6420   30.6630   36.6490 C.2     1  ASN1        0.0000
     32 O          19.4420   30.9360   36.5660 O.2     1  ASN1        0.0000
     33 CB         21.7090   29.6370   38.6840 C.3     1  ASN1        0.0000
     34 CG         22.7400   28.7670   37.9810 C.2     1  ASN1        0.0000
     35 OD1        23.7900   29.2560   37.5390 O.2     1  ASN1        0.0000
     36 ND2        22.4540   27.4630   37.8810 N.am    1  ASN1        0.0000
     37 N          19.7490   22.0590   39.7160 N.3     1  THR1        0.0000
     38 CA         19.7390   23.0870   40.7290 C.3     1  THR1        0.0000
     39 C          20.9030   22.7410   41.6590 C.2     1  THR1        0.0000
     40 O          20.9100   21.6960   42.3150 O.2     1  THR1        0.0000
     41 CB         18.3910   23.0520   41.4800 C.3     1  THR1        0.0000
     42 OG1        17.3980   23.7010   40.6640 O.3     1  THR1        0.0000
     43 CG2        18.4870   23.6980   42.7990 C.3     1  THR1        0.0000
     44 N          21.8820   23.6310   41.7070 N.am    2  SER2        0.0000
     45 CA         23.0540   23.4200   42.5500 C.3     2  SER2        0.0000
     46 C          23.0790   24.3780   43.7260 C.2     2  SER2        0.0000
     47 O          22.6400   25.5110   43.6210 O.2     2  SER2        0.0000
     48 CB         24.3380   23.6120   41.7310 C.3     2  SER2        0.0000
     49 OG         24.4000   22.6520   40.7000 O.3     2  SER2        0.0000
     50 N          23.6100   23.8990   44.8440 N.am    3  TRP3        0.0000
     51 CA         23.7440   24.6860   46.0540 C.3     3  TRP3        0.0000
     52 C          25.0370   25.4930   45.9080 C.2     3  TRP3        0.0000
     53 O          26.1170   24.9300   45.7350 O.2     3  TRP3        0.0000
     54 CB         23.8650   23.7630   47.2610 C.3     3  TRP3        0.0000
     55 CG         24.0470   24.4990   48.5520 C.2     3  TRP3        0.0000
     56 CD1        25.1990   25.0570   49.0370 C.2     3  TRP3        0.0000
     57 CD2        23.0400   24.7390   49.5310 C.3     3  TRP3        0.0000
     58 NE1        24.9610   25.6280   50.2720 N.2     3  TRP3        0.0000
     59 CE2        23.6470   25.4450   50.5980 C.2     3  TRP3        0.0000
     60 CE3        21.6770   24.4200   49.6160 C.2     3  TRP3        0.0000
     61 CZ2        22.9370   25.8350   51.7360 C.2     3  TRP3        0.0000
     62 CZ3        20.9760   24.8090   50.7430 C.2     3  TRP3        0.0000
     63 CH2        21.6080   25.5080   51.7870 C.2     3  TRP3        0.0000
     64 N          24.9290   26.8060   45.9960 N.am    4  ARG4        0.0000
     65 CA         26.1010   27.6450   45.8460 C.3     4  ARG4        0.0000
     66 C          26.4530   28.4160   47.1030 C.2     4  ARG4        0.0000
     67 O          25.6790   29.2490   47.5600 O.2     4  ARG4        0.0000
     68 CB         25.8820   28.6250   44.6920 C.3     4  ARG4        0.0000
     69 CG         26.0030   27.9930   43.2960 C.3     4  ARG4        0.0000
     70 CD         25.5970   29.0010   42.2350 C.3     4  ARG4        0.0000
     71 NE         26.0730   30.3420   42.5780 N.pl3   4  ARG4        0.3300
     72 CZ         25.8430   31.4270   41.8440 C.cat   4  ARG4        0.0000
     73 NH1        25.1400   31.3330   40.7170 N.pl3   4  ARG4        0.3300
     74 NH2        26.3160   32.6080   42.2360 N.pl3   4  ARG4        0.3300
     75 N          27.6210   28.1280   47.6930 N.am    5  PRO5        0.0000
     76 CA         28.0350   28.8410   48.9030 C.3     5  PRO5        0.0000
     77 C          28.0430   30.3270   48.5480 C.2     5  PRO5        0.0000
     78 O          28.3660   30.6900   47.4230 O.2     5  PRO5        0.0000
     79 CB         29.4440   28.2960   49.1550 C.3     5  PRO5        0.0000
     80 CG         29.3430   26.8910   48.6570 C.3     5  PRO5        0.0000
     81 CD         28.5840   27.0630   47.3550 C.3     5  PRO5        0.0000
     82 N          20.4490   22.4710   59.6660 N.3     1  ILE1        0.0000
     83 CA         19.6740   21.7760   58.6390 C.3     1  ILE1        0.0000
     84 C          19.5490   22.6510   57.3890 C.2     1  ILE1        0.0000
     85 O          19.0550   23.7820   57.4500 O.2     1  ILE1        0.0000
     86 CB         18.2390   21.4110   59.1370 C.3     1  ILE1        0.0000
     87 CG1        18.3150   20.5360   60.3990 C.3     1  ILE1        0.0000
     88 CG2        17.4600   20.7040   58.0170 C.3     1  ILE1        0.0000
     89 CD1        16.9320   20.2680   61.0710 C.3     1  ILE1        0.0000
     90 N          20.0240   22.1420   56.2600 N.am    2  ALA2        0.0000
     91 CA         19.9070   22.8790   55.0100 C.3     2  ALA2        0.0000
     92 C          18.4960   22.6800   54.4770 C.2     2  ALA2        0.0000
     93 O          17.8940   21.6050   54.6400 O.2     2  ALA2        0.0000
     94 CB         20.9160   22.3810   53.9880 C.3     2  ALA2        0.0000
     95 N          17.9690   23.7200   53.8530 N.am    3  TRP3        0.0000
     96 CA         16.6240   23.6870   53.2660 C.3     3  TRP3        0.0000
     97 C          16.5860   24.1740   51.8230 C.2     3  TRP3        0.0000
     98 O          17.3390   25.0710   51.4340 O.2     3  TRP3        0.0000
     99 CB         15.6650   24.6210   54.0140 C.3     3  TRP3        0.0000
    100 CG         15.1350   24.1550   55.3480 C.2     3  TRP3        0.0000
    101 CD1        15.8010   24.1280   56.5440 C.3     3  TRP3        0.0000
    102 CD2        13.8010   23.6950   55.6170 C.ar    3  TRP3        0.0000
    103 NE1        14.9560   23.6800   57.5490 N.2     3  TRP3        0.0000
    104 CE2        13.7260   23.4100   57.0070 C.ar    3  TRP3        0.0000
    105 CE3        12.6620   23.5010   54.8200 C.ar    3  TRP3        0.0000
    106 CZ2        12.5490   22.9360   57.6210 C.ar    3  TRP3        0.0000
    107 CZ3        11.4840   23.0280   55.4260 C.ar    3  TRP3        0.0000
    108 CH2        11.4440   22.7520   56.8170 C.ar    3  TRP3        0.0000
    109 N          15.6840   23.5850   51.0360 N.am    4  VAL4        0.0000
    110 CA         15.4010   24.0360   49.6800 C.3     4  VAL4        0.0000
    111 C          13.8710   23.8700   49.5780 C.2     4  VAL4        0.0000
    112 O          13.3440   22.7950   49.8660 O.2     4  VAL4        0.0000
    113 CB         16.0450   23.1790   48.5630 C.3     4  VAL4        0.0000
    114 CG1        15.5360   23.6790   47.1900 C.3     4  VAL4        0.0000
    115 CG2        17.5680   23.2860   48.6040 C.3     4  VAL4        0.0000
    116 N          13.1540   24.9300   49.2260 N.am    5  VAL5        0.0000
    117 CA         11.6980   24.8360   49.0630 C.3     5  VAL5        0.0000
    118 C          11.5560   25.2660   47.6300 C.2     5  VAL5        0.0000
    119 O          11.8980   26.4070   47.2800 O.2     5  VAL5        0.0000
    120 CB         10.9310   25.7870   50.0050 C.3     5  VAL5        0.0000
    121 CG1         9.4000   25.6130   49.8140 C.3     5  VAL5        0.0000
    122 CG2        11.3080   25.4820   51.4520 C.3     5  VAL5        0.0000
    123 N          11.0270   24.3620   46.8080 N.am    6  PHE6        0.0000
    124 CA         10.9420   24.5820   45.3720 C.3     6  PHE6        0.0000
    125 C           9.5010   24.4180   44.8600 C.2     6  PHE6        0.0000
    126 O           8.8030   23.4840   45.2540 O.2     6  PHE6        0.0000
    127 CB         11.8700   23.5550   44.6860 C.3     6  PHE6        0.0000
    128 CG         12.4500   24.0230   43.3810 C.ar    6  PHE6        0.0000
    129 CD2        13.6830   24.6730   43.3480 C.ar    6  PHE6        0.0000
    130 CD1        11.7550   23.8460   42.1930 C.ar    6  PHE6        0.0000
    131 CE2        14.2170   25.1440   42.1370 C.ar    6  PHE6        0.0000
    132 CE1        12.2810   24.3140   40.9700 C.ar    6  PHE6        0.0000
    133 CZ         13.5140   24.9640   40.9450 C.ar    6  PHE6        0.0000
    134 N          16.7950   13.6490   43.4490 N.3     1  LYS1        0.0000
    135 CA         16.9410   14.4600   44.6610 C.3     1  LYS1        0.0000
    136 C          18.2810   14.2230   45.3740 C.2     1  LYS1        0.0000
    137 O          18.5370   14.8070   46.4220 O.2     1  LYS1        0.0000
    138 CB         15.8000   14.1400   45.6350 C.3     1  LYS1        0.0000
    139 CG         15.9560   12.7670   46.2780 C.3     1  LYS1        0.0000
    140 CD         14.8020   12.4080   47.1960 C.3     1  LYS1        0.0000
    141 CE         14.9230   10.9720   47.6580 C.3     1  LYS1        0.0000
    142 NZ         13.6920   10.5290   48.3640 N.3     1  LYS1        0.0000
    143 N          21.0330   13.1190   47.7970 N.3     1  SER1        0.0000
    144 CA         20.9400   12.6980   49.1940 C.3     1  SER1        0.0000
    145 C          19.9190   13.4890   50.0140 C.2     1  SER1        0.0000
    146 O          19.7660   13.2500   51.2100 O.2     1  SER1        0.0000
    147 CB         22.3160   12.8130   49.8600 C.3     1  SER1        0.0000
    148 OG         22.8230   14.1450   49.7700 O.3     1  SER1        0.0000
    149 N          19.2070   14.4100   49.3760 N.am    2  TRP2        0.0000
    150 CA         18.2400   15.2420   50.0900 C.3     2  TRP2        0.0000
    151 C          17.0250   14.4990   50.6290 C.2     2  TRP2        0.0000
    152 O          16.4920   13.6110   49.9790 O.2     2  TRP2        0.0000
    153 CB         17.7230   16.3720   49.1880 C.3     2  TRP2        0.0000
    154 CG         18.7250   17.4410   48.8720 C.2     2  TRP2        0.0000
    155 CD1        19.5800   17.4860   47.8020 C.2     2  TRP2        0.0000
    156 CD2        18.9510   18.6450   49.6200 C.3     2  TRP2        0.0000
    157 NE1        20.3190   18.6560   47.8360 N.2     2  TRP2        0.0000
    158 CE2        19.9540   19.3790   48.9430 C.2     2  TRP2        0.0000
    159 CE3        18.4020   19.1740   50.8000 C.2     2  TRP2        0.0000
    160 CZ2        20.4190   20.6180   49.4090 C.2     2  TRP2        0.0000
    161 CZ3        18.8610   20.4010   51.2580 C.2     2  TRP2        0.0000
    162 CH2        19.8650   21.1110   50.5600 C.2     2  TRP2        0.0000
    163 N          16.5670   14.9000   51.8080 N.am    3  SER3        0.0000
    164 CA         15.3850   14.2920   52.3910 C.3     3  SER3        0.0000
    165 CB         14.1780   15.0490   51.8550 C.2     3  SER3        0.0000
    166 OG         13.9570   16.2010   52.2260 O.2     3  SER3        0.0000
    167 C          15.4430   14.3890   53.9230 C.3     3  SER3        0.0000
    168 O          14.2030   14.0110   54.5020 O.3     3  SER3        0.0000
    169 N          12.9420   20.0450   50.5890 N.3     1  PHE1        0.0000
    170 CA         14.1190   19.1930   50.6750 C.3     1  PHE1        0.0000
    171 C          14.9370   19.6470   51.8780 C.2     1  PHE1        0.0000
    172 O          15.2340   20.8410   52.0260 O.2     1  PHE1        0.0000
    173 CB         14.9710   19.3260   49.3980 C.3     1  PHE1        0.0000
    174 CG         14.2420   18.9530   48.1330 C.ar    1  PHE1        0.0000
    175 CD1        13.6840   19.9260   47.3190 C.ar    1  PHE1        0.0000
    176 CD2        14.1350   17.6150   47.7520 C.ar    1  PHE1        0.0000
    177 CE1        13.0260   19.5890   46.1290 C.ar    1  PHE1        0.0000
    178 CE2        13.4760   17.2600   46.5640 C.ar    1  PHE1        0.0000
    179 CZ         12.9230   18.2440   45.7520 C.ar    1  PHE1        0.0000
    180 N          15.3250   18.7030   52.7260 N.am    2  LEU2        0.0000
    181 CA         16.1090   19.0470   53.9080 C.3     2  LEU2        0.0000
    182 C          17.3270   18.1680   54.0380 C.2     2  LEU2        0.0000
    183 O          17.3260   17.0090   53.6050 O.2     2  LEU2        0.0000
    184 CB         15.2770   18.8790   55.1930 C.3     2  LEU2        0.0000
    185 CG         14.1520   19.8620   55.5230 C.3     2  LEU2        0.0000
    186 CD1        12.9820   19.6840   54.5530 C.3     2  LEU2        0.0000
    187 CD2        13.7130   19.6210   56.9820 C.3     2  LEU2        0.0000
    188 N          18.3760   18.7210   54.6280 N.am    3  LYS3        0.0000
    189 CA         19.5710   17.9490   54.8870 C.3     3  LYS3        0.0000
    190 C          20.1360   18.3840   56.2360 C.2     3  LYS3        0.0000
    191 O          20.7960   19.4340   56.3490 O.2     3  LYS3        0.0000
    192 CB         20.5970   18.1150   53.7630 C.3     3  LYS3        0.0000
    193 CG         21.8690   17.2940   53.9750 C.3     3  LYS3        0.0000
    194 CD         21.6110   15.8470   54.4280 C.3     3  LYS3        0.0000
    195 CE         20.8850   15.0110   53.4070 C.3     3  LYS3        0.0000
    196 NZ         20.9910   13.5370   53.7620 N.3     3  LYS3        0.0000
    197 N          27.9520   31.7340   54.0370 N.3     1  LEU1        0.0000
    198 CA         27.7800   30.2920   54.1770 C.3     1  LEU1        0.0000
    199 C          28.7320   29.6390   53.2060 C.2     1  LEU1        0.0000
    200 O          28.6270   29.8240   51.9990 O.2     1  LEU1        0.0000
    201 CB         26.3400   29.8590   53.8540 C.3     1  LEU1        0.0000
    202 CG         25.2140   30.3450   54.7740 C.3     1  LEU1        0.0000
    203 CD1        23.8810   29.8140   54.2530 C.3     1  LEU1        0.0000
    204 CD2        25.4700   29.9000   56.1980 C.3     1  LEU1        0.0000
    205 N          29.2850   26.1590   53.2930 N.3     1  GLU1        0.0000
    206 CA         28.9410   24.7480   53.1050 C.3     1  GLU1        0.0000
    207 C          28.4310   24.4610   51.6810 C.2     1  GLU1        0.0000
    208 O          27.8690   25.3320   51.0130 O.2     1  GLU1        0.0000
    209 CB         27.8730   24.3030   54.1190 C.3     1  GLU1        0.0000
    210 CG         28.3180   24.2510   55.5640 C.3     1  GLU1        0.0000
    211 CD         28.3560   25.6200   56.2200 C.2     1  GLU1        0.0000
    212 OE1        27.9240   26.6080   55.5870 O.co2   1  GLU1       -0.5000
    213 OE2        28.8110   25.7030   57.3760 O.co2   1  GLU1       -0.5000
    214 N          28.6400   23.2260   51.2320 N.am    2  LYS2        0.0000
    215 CA         28.2070   22.7760   49.9180 C.3     2  LYS2        0.0000
    216 C          27.2500   21.5950   50.1050 C.2     2  LYS2        0.0000
    217 O          27.4840   20.7500   50.9680 O.2     2  LYS2        0.0000
    218 CB         29.4290   22.2950   49.1100 C.3     2  LYS2        0.0000
    219 CG         29.0760   21.6250   47.7840 C.3     2  LYS2        0.0000
    220 CD         28.5210   22.6430   46.7970 C.3     2  LYS2        0.0000
    221 CE         28.3530   22.0380   45.4100 C.3     2  LYS2        0.0000
    222 NZ         27.8320   23.0630   44.4610 N.3     2  LYS2        0.0000
    223 N          26.1660   21.5490   49.3260 N.am    3  PHE3        0.0000
    224 CA         25.2430   20.4290   49.3960 C.3     3  PHE3        0.0000
    225 C          25.0280   19.8990   47.9890 C.2     3  PHE3        0.0000
    226 O          25.4010   20.5270   46.9980 O.2     3  PHE3        0.0000
    227 CB         23.9010   20.8090   50.0510 C.3     3  PHE3        0.0000
    228 CG         24.0270   21.1650   51.5030 C.ar    3  PHE3        0.0000
    229 CD1        24.4300   22.4440   51.8880 C.ar    3  PHE3        0.0000
    230 CD2        23.7940   20.2160   52.4910 C.ar    3  PHE3        0.0000
    231 CE1        24.6060   22.7730   53.2330 C.ar    3  PHE3        0.0000
    232 CE2        23.9660   20.5380   53.8510 C.ar    3  PHE3        0.0000
    233 CZ         24.3770   21.8230   54.2130 C.ar    3  PHE3        0.0000
    234 N          24.4470   18.7150   47.9330 N.am    4  ASP4        0.0000
    235 CA         24.1790   17.9850   46.7040 C.3     4  ASP4        0.0000
    236 C          23.2770   18.7510   45.7400 C.2     4  ASP4        0.0000
    237 O          22.4840   19.6200   46.1520 O.2     4  ASP4        0.0000
    238 CB         23.5250   16.6510   47.1070 C.3     4  ASP4        0.0000
    239 CG         23.7240   15.5480   46.0860 C.2     4  ASP4        0.0000
    240 OD1        24.4160   15.7740   45.0570 O.co2   4  ASP4       -0.5000
    241 OD2        23.1740   14.4480   46.3380 O.co2   4  ASP4       -0.5000
    242 N          23.3990   18.4300   44.4530 N.am    5  ASP5        0.0000
    243 CA         22.5490   19.0350   43.4390 C.3     5  ASP5        0.0000
    244 C          21.1820   18.3560   43.5260 C.2     5  ASP5        0.0000
    245 O          21.0310   17.3030   44.1560 O.2     5  ASP5        0.0000
    246 CB         23.0480   18.7410   42.0170 C.3     5  ASP5        0.0000
    247 CG         24.3990   19.3290   41.7180 C.2     5  ASP5        0.0000
    248 OD2        24.6790   20.4610   42.1780 O.co2   5  ASP5       -0.5000
    249 OD1        25.1670   18.6550   40.9820 O.co2   5  ASP5       -0.5000
    250 N          20.2040   18.9580   42.8620 N.am    6  ILE6        0.0000
    251 CA         18.8620   18.3920   42.7570 C.3     6  ILE6        0.0000
    252 C          18.5260   18.5760   41.2790 C.2     6  ILE6        0.0000
    253 O          18.6360   19.6820   40.7340 O.2     6  ILE6        0.0000
    254 CB         17.8210   19.1400   43.6240 C.3     6  ILE6        0.0000
    255 CG1        18.1620   18.9580   45.1050 C.3     6  ILE6        0.0000
    256 CG2        16.4080   18.5950   43.3460 C.3     6  ILE6        0.0000
    257 CD1        17.3030   19.8200   46.0550 C.3     6  ILE6        0.0000
    258 N          15.7200   18.4090   38.3390 N.3     1  PHE1        0.0000
    259 CA         14.2820   18.4430   38.1040 C.3     1  PHE1        0.0000
    260 C          14.0520   18.2520   36.6050 C.2     1  PHE1        0.0000
    261 O          14.9530   18.4350   35.7910 O.2     1  PHE1        0.0000
    262 CB         13.6820   19.8120   38.4920 C.3     1  PHE1        0.0000
    263 CG         13.7780   20.1470   39.9640 C.ar    1  PHE1        0.0000
    264 CD1        14.8480   20.9000   40.4580 C.ar    1  PHE1        0.0000
    265 CD2        12.7810   19.7490   40.8460 C.ar    1  PHE1        0.0000
    266 CE1        14.9140   21.2530   41.8190 C.ar    1  PHE1        0.0000
    267 CE2        12.8370   20.0930   42.2040 C.ar    1  PHE1        0.0000
    268 CZ         13.9050   20.8490   42.6920 C.ar    1  PHE1        0.0000
    269 N          12.8580   30.3080   44.1680 N.3     1  TYR1        0.0000
    270 CA         12.8160   29.2820   45.1920 C.3     1  TYR1        0.0000
    271 C          13.6270   29.6860   46.4130 C.2     1  TYR1        0.0000
    272 O          14.4000   30.6430   46.3690 O.2     1  TYR1        0.0000
    273 CB         13.3020   27.9520   44.6440 C.3     1  TYR1        0.0000
    274 CG         14.7630   27.9090   44.2990 C.ar    1  TYR1        0.0000
    275 CD2        15.6810   27.3350   45.1740 C.ar    1  TYR1        0.0000
    276 CD1        15.2130   28.3620   43.0590 C.ar    1  TYR1        0.0000
    277 CE2        17.0160   27.1980   44.8130 C.ar    1  TYR1        0.0000
    278 CE1        16.5420   28.2290   42.6880 C.ar    1  TYR1        0.0000
    279 CZ         17.4310   27.6430   43.5670 C.ar    1  TYR1        0.0000
    280 OH         18.7330   27.4770   43.1820 O.3     1  TYR1        0.0000
    281 N          13.4390   28.9620   47.5060 N.am    2  THR2        0.0000
    282 CA         14.1660   29.2660   48.7370 C.3     2  THR2        0.0000
    283 C          15.2380   28.2280   48.9960 C.2     2  THR2        0.0000
    284 O          15.0220   27.0190   48.7780 O.2     2  THR2        0.0000
    285 CB         13.2100   29.2560   49.9740 C.3     2  THR2        0.0000
    286 OG1        12.2430   30.3120   49.8550 O.3     2  THR2        0.0000
    287 CG2        14.0070   29.4060   51.2840 C.3     2  THR2        0.0000
    288 N          16.4160   28.6750   49.4230 N.am    3  SER3        0.0000
    289 CA         17.4470   27.7190   49.8290 C.3     3  SER3        0.0000
    290 C          18.1460   28.4380   50.9750 C.2     3  SER3        0.0000
    291 O          18.1980   29.6680   51.0110 O.2     3  SER3        0.0000
    292 CB         18.4290   27.3600   48.6970 C.3     3  SER3        0.0000
    293 OG         19.3610   28.3910   48.4440 O.3     3  SER3        0.0000
    294 N          18.6230   27.6900   51.9450 N.am    4  GLY4        0.0000
    295 CA         19.2850   28.3570   53.0440 C.3     4  GLY4        0.0000
    296 C          19.6170   27.4080   54.1480 C.2     4  GLY4        0.0000
    297 O          19.4010   26.2030   54.0250 O.2     4  GLY4        0.0000
    298 N          20.1470   27.9620   55.2320 N.am    5  UNK5        0.0000
    299 C          20.5670   27.1710   56.3480 C.3     5  UNK5        0.0000
    300 C          19.7910   27.4990   57.6040 C.2     5  UNK5        0.0000
    301 O          19.7510   28.6450   58.0280 O.2     5  UNK5        0.0000
    302 C          22.0640   27.4230   56.6150 C.3     5  UNK5        0.0000
    303 C          22.6930   26.6010   57.7480 C.3     5  UNK5        0.0000
    304 SE         22.8390   24.7490   57.2360 Se      5  UNK5        0.0000
    305 C          24.2720   24.9270   55.9040 C.3     5  UNK5        0.0000
    306 N          16.2570   32.8590   45.7200 N.3     1  ASN1        0.0000
    307 CA         17.0250   32.2830   44.6310 C.3     1  ASN1        0.0000
    308 C          16.1750   32.3280   43.3890 C.2     1  ASN1        0.0000
    309 O          14.9540   32.4520   43.4610 O.2     1  ASN1        0.0000
    310 CB         17.3620   30.8340   44.8930 C.3     1  ASN1        0.0000
    311 CG         18.3820   30.6900   45.9420 C.2     1  ASN1        0.0000
    312 OD1        19.5550   31.0440   45.7410 O.2     1  ASN1        0.0000
    313 ND2        17.9620   30.1980   47.0920 N.am    1  ASN1        0.0000
    314 N          16.8330   32.2100   42.2500 N.am    2  GLU2        0.0000
    315 CA         16.1350   32.1990   40.9910 C.3     2  GLU2        0.0000
    316 C          16.8580   31.3090   40.0070 C.2     2  GLU2        0.0000
    317 O          18.0670   31.4290   39.8090 O.2     2  GLU2        0.0000
    318 CB         16.0330   33.6040   40.4080 C.3     2  GLU2        0.0000
    319 CG         15.1650   33.6630   39.1780 C.3     2  GLU2        0.0000
    320 CD         15.1950   35.0160   38.4990 C.2     2  GLU2        0.0000
    321 OE1        16.0880   35.2420   37.6590 O.co2   2  GLU2       -0.5000
    322 OE2        14.3280   35.8510   38.8110 O.co2   2  GLU2       -0.5000
    323 N          16.1120   30.3900   39.4100 N.am    3  UNK3        0.0000
    324 C          16.6770   29.5320   38.3890 C.3     3  UNK3        0.0000
    325 C          16.0910   30.1390   37.1320 C.2     3  UNK3        0.0000
    326 O          14.8850   30.3840   37.0690 O.2     3  UNK3        0.0000
    327 C          16.1910   28.0880   38.5470 C.3     3  UNK3        0.0000
    328 C          16.2460   27.2700   37.2560 C.3     3  UNK3        0.0000
    329 SE         17.9850   27.3520   36.3280 Se      3  UNK3        0.0000
    330 C          18.9450   26.1290   37.4990 C.3     3  UNK3        0.0000
@<TRIPOS>UNITY_ATOM_ATTR
27 1
charge -1
212 1
charge -1
240 1
charge -1
248 1
charge -1
321 1
charge -1
@<TRIPOS>BOND
     1     1     2    1
     2     2     3    1
     3     2     5    1
     4     3     4    2
     5     5     6    1
     6     6     8   ar
     7     6     7   ar
     8     7     9   ar
     9     8    10   ar
    10     9    11   ar
    11    10    11   ar
    12    11    12    1
    13    13    14    1
    14    14    15    1
    15    14    17    1
    16    15    16    2
    17    17    18    1
    18    18    19    1
    19    18    20    1
    20    21    22    1
    21    22    23    1
    22    22    25    1
    23    23    24    2
    24    25    26    1
    25    26    27   ar
    26    26    28   ar
    27    29    30    1
    28    30    31    1
    29    30    33    1
    30    31    32    2
    31    33    34    1
    32    34    35    2
    33    34    36   am
    34    37    38    1
    35    38    41    1
    36    38    39    1
    37    39    44   am
    38    39    40    2
    39    41    42    1
    40    41    43    1
    41    44    45    1
    42    45    48    1
    43    45    46    1
    44    46    47    2
    45    46    50   am
    46    48    49    1
    47    50    51    1
    48    51    52    1
    49    51    54    1
    50    52    53    2
    51    52    64   am
    52    54    55    1
    53    55    56    2
    54    55    57    1
    55    56    58    1
    56    57    60    1
    57    57    59    1
    58    58    59    2
    59    59    61    1
    60    60    62    2
    61    61    63    2
    62    62    63    1
    63    64    65    1
    64    65    68    1
    65    65    66    1
    66    66    67    2
    67    66    75   am
    68    68    69    1
    69    69    70    1
    70    70    71    1
    71    71    72    2
    72    72    73    1
    73    72    74    1
    74    75    81    1
    75    75    76    1
    76    76    77    1
    77    76    79    1
    78    77    78    2
    79    79    80    1
    80    80    81    1
    81    82    83    1
    82    83    84    1
    83    83    86    1
    84    84    90   am
    85    84    85    2
    86    86    88    1
    87    86    87    1
    88    87    89    1
    89    90    91    1
    90    91    94    1
    91    91    92    1
    92    92    95   am
    93    92    93    2
    94    95    96    1
    95    96    97    1
    96    96    99    1
    97    97   109   am
    98    97    98    2
    99    99   100    1
   100   100   102    2
   101   100   101    1
   102   101   103    1
   103   102   105   ar
   104   102   104   ar
   105   103   104    2
   106   104   106   ar
   107   105   107   ar
   108   106   108   ar
   109   107   108   ar
   110   109   110    1
   111   110   113    1
   112   110   111    1
   113   111   116   am
   114   111   112    2
   115   113   114    1
   116   113   115    1
   117   116   117    1
   118   117   118    1
   119   117   120    1
   120   118   123   am
   121   118   119    2
   122   120   121    1
   123   120   122    1
   124   123   124    1
   125   124   127    1
   126   124   125    1
   127   125   126    2
   128   127   128    1
   129   128   130   ar
   130   128   129   ar
   131   129   131   ar
   132   130   132   ar
   133   131   133   ar
   134   132   133   ar
   135   134   135    1
   136   135   136    1
   137   135   138    1
   138   136   137    2
   139   138   139    1
   140   139   140    1
   141   140   141    1
   142   141   142    1
   143   143   144    1
   144   144   147    1
   145   144   145    1
   146   145   149   am
   147   145   146    2
   148   147   148    1
   149   149   150    1
   150   150   153    1
   151   150   151    1
   152   151   152    2
   153   151   163   am
   154   153   154    1
   155   154   155    2
   156   154   156    1
   157   155   157    1
   158   156   158    1
   159   156   159    1
   160   157   158    2
   161   158   160    1
   162   159   161    2
   163   160   162    2
   164   161   162    1
   165   163   164    1
   166   164   165    1
   167   164   167    1
   168   165   166    2
   169   167   168    1
   170   169   170    1
   171   170   173    1
   172   170   171    1
   173   171   172    2
   174   171   180   am
   175   173   174    1
   176   174   175   ar
   177   174   176   ar
   178   175   177   ar
   179   176   178   ar
   180   177   179   ar
   181   178   179   ar
   182   180   181    1
   183   181   182    1
   184   181   184    1
   185   182   183    2
   186   182   188   am
   187   184   185    1
   188   185   186    1
   189   185   187    1
   190   188   189    1
   191   189   192    1
   192   189   190    1
   193   190   191    2
   194   192   193    1
   195   193   194    1
   196   194   195    1
   197   195   196    1
   198   197   198    1
   199   198   199    1
   200   198   201    1
   201   199   200    2
   202   201   202    1
   203   202   203    1
   204   202   204    1
   205   205   206    1
   206   206   207    1
   207   206   209    1
   208   207   208    2
   209   207   214   am
   210   209   210    1
   211   210   211    1
   212   211   212   ar
   213   211   213   ar
   214   214   215    1
   215   215   218    1
   216   215   216    1
   217   216   223   am
   218   216   217    2
   219   218   219    1
   220   219   220    1
   221   220   221    1
   222   221   222    1
   223   223   224    1
   224   224   225    1
   225   224   227    1
   226   225   226    2
   227   225   234   am
   228   227   228    1
   229   228   229   ar
   230   228   230   ar
   231   229   231   ar
   232   230   232   ar
   233   231   233   ar
   234   232   233   ar
   235   234   235    1
   236   235   236    1
   237   235   238    1
   238   236   242   am
   239   236   237    2
   240   238   239    1
   241   239   240   ar
   242   239   241   ar
   243   242   243    1
   244   243   246    1
   245   243   244    1
   246   244   250   am
   247   244   245    2
   248   246   247    1
   249   247   249   ar
   250   247   248   ar
   251   250   251    1
   252   251   252    1
   253   251   254    1
   254   252   253    2
   255   254   256    1
   256   254   255    1
   257   255   257    1
   258   258   259    1
   259   259   260    1
   260   259   262    1
   261   260   261    2
   262   262   263    1
   263   263   264   ar
   264   263   265   ar
   265   264   266   ar
   266   265   267   ar
   267   266   268   ar
   268   267   268   ar
   269   269   270    1
   270   270   273    1
   271   270   271    1
   272   271   272    2
   273   271   281   am
   274   273   274    1
   275   274   276   ar
   276   274   275   ar
   277   275   277   ar
   278   276   278   ar
   279   277   279   ar
   280   278   279   ar
   281   279   280    1
   282   281   282    1
   283   282   283    1
   284   282   285    1
   285   283   284    2
   286   283   288   am
   287   285   286    1
   288   285   287    1
   289   288   289    1
   290   289   292    1
   291   289   290    1
   292   290   291    2
   293   290   294   am
   294   292   293    1
   295   294   295    1
   296   295   296    1
   297   296   297    2
   298   296   298   am
   299   298   299    1
   300   299   302    1
   301   299   300    1
   302   300   301    2
   303   302   303    1
   304   303   304    1
   305   304   305    1
   306   306   307    1
   307   307   308    1
   308   307   310    1
   309   308   314   am
   310   308   309    2
   311   310   311    1
   312   311   312    2
   313   311   313   am
   314   314   315    1
   315   315   316    1
   316   315   318    1
   317   316   323   am
   318   316   317    2
   319   318   319    1
   320   319   320    1
   321   320   321   ar
   322   320   322   ar
   323   323   324    1
   324   324   325    1
   325   324   327    1
   326   325   326    2
   327   327   328    1
   328   328   329    1
   329   329   330    1
