@<TRIPOS>MOLECULE
./1zt9/protein.pdb
 114 107 0 0 0
SMALL
GASTEIGER

@<TRIPOS>ATOM
      1 N          82.4790   65.5670    5.3800 N.3     1  LEU1       -0.1245
      2 CA         81.6970   64.3940    5.7810 C.3     1  LEU1        0.1561
      3 C          82.4790   63.5250    6.7810 C.2     1  LEU1        0.2260
      4 O          81.8990   63.0370    7.7320 O.2     1  LEU1       -0.2867
      5 CB         81.2270   63.5770    4.5590 C.3     1  LEU1        0.0270
      6 CG         80.1270   64.2620    3.7280 C.3     1  LEU1        0.0019
      7 CD1        80.0000   63.6600    2.3470 C.3     1  LEU1        0.0001
      8 CD2        78.7680   64.1960    4.4580 C.3     1  LEU1        0.0001
      9 N          82.1930   65.4600   10.0120 N.3     1  ARG1       -0.1231
     10 CA         80.8320   65.3710   10.5500 C.3     1  ARG1        0.1694
     11 C          80.5600   64.0510   11.2410 C.2     1  ARG1        0.2591
     12 O          79.8440   64.0080   12.2300 O.2     1  ARG1       -0.2718
     13 CB         79.8190   65.6110    9.4390 C.3     1  ARG1        0.0321
     14 CG         79.7710   67.0590    9.0140 C.3     1  ARG1        0.0489
     15 CD         78.8980   67.2550    7.8330 C.3     1  ARG1        0.2205
     16 NE         78.9760   68.6050    7.3100 N.pl3   1  ARG1       -0.0865
     17 CZ         78.3280   68.9970    6.2270 C.cat   1  ARG1        0.5346
     18 NH1        77.5540   68.1490    5.5950 N.pl3   1  ARG1        0.1354
     19 NH2        78.4660   70.2340    5.7660 N.pl3   1  ARG1        0.1354
     20 N          81.1280   62.9610   10.7340 N.am    2  VAL2       -0.1980
     21 CA         81.0270   61.6900   11.4300 C.3     2  VAL2        0.1595
     22 C          81.6190   61.7630   12.8490 C.2     2  VAL2        0.2287
     23 O          81.0080   61.2970   13.8060 O.2     2  VAL2       -0.2864
     24 CB         81.6650   60.5550   10.6150 C.3     2  VAL2        0.0276
     25 CG2        81.8330   59.2890   11.4720 C.3     2  VAL2        0.0022
     26 CG1        80.7850   60.2630    9.4120 C.3     2  VAL2        0.0022
     27 N          79.3120   63.7800   15.1640 N.3     1  VAL1       -0.1231
     28 CA         78.1640   63.0220   15.6170 C.3     1  VAL1        0.1692
     29 C          78.6050   61.9850   16.6440 C.2     1  VAL1        0.2591
     30 O          77.9620   61.8110   17.6810 O.2     1  VAL1       -0.2718
     31 CB         77.4490   62.3650   14.4350 C.3     1  VAL1        0.0266
     32 CG2        76.4550   61.3360   14.9130 C.3     1  VAL1        0.0020
     33 CG1        76.7970   63.4600   13.5680 C.3     1  VAL1        0.0020
     34 N          79.6960   61.2920   16.3400 N.am    2  GLU2       -0.1979
     35 CA         80.2750   60.3230   17.2570 C.3     2  GLU2        0.1600
     36 C          80.5080   60.9530   18.6270 C.2     2  GLU2        0.2287
     37 O          80.0400   60.4280   19.6450 O.2     2  GLU2       -0.2864
     38 CB         81.5920   59.7820   16.6940 C.3     2  GLU2        0.0356
     39 CG         82.2800   58.7360   17.5640 C.3     2  GLU2        0.0439
     40 CD         83.7330   58.4960   17.1820 C.2     2  GLU2        0.0504
     41 OE2        84.3280   57.5710   17.7610 O.co2   2  GLU2       -0.5492
     42 OE1        84.2880   59.2120   16.3100 O.co2   2  GLU2       -0.5492
     43 N          77.3840   62.0320   20.5900 N.3     1  LEU1       -0.1245
     44 CA         76.6280   60.9060   21.1370 C.3     1  LEU1        0.1561
     45 C          77.3730   60.3230   22.3220 C.2     1  LEU1        0.2260
     46 O          76.7630   59.8990   23.2820 O.2     1  LEU1       -0.2867
     47 CB         76.3930   59.8120   20.0960 C.3     1  LEU1        0.0270
     48 CG         75.3470   60.1240   19.0260 C.3     1  LEU1        0.0019
     49 CD1        75.3470   59.0360   17.9670 C.3     1  LEU1        0.0001
     50 CD2        73.9660   60.2660   19.6590 C.3     1  LEU1        0.0001
     51 N          70.9580   68.9420   14.1310 N.3     1  SER1       -0.1202
     52 CA         70.5550   67.8600   13.2420 C.3     1  SER1        0.2020
     53 C          70.4210   66.5230   13.9840 C.2     1  SER1        0.2618
     54 O          69.5070   65.7430   13.7300 O.2     1  SER1       -0.2717
     55 CB         71.5590   67.7320   12.0960 C.3     1  SER1        0.2103
     56 OG         71.0080   66.9550   11.0490 O.3     1  SER1       -0.2182
     57 N          71.3430   66.2520   14.8870 N.am    2  LEU2       -0.1979
     58 CA         71.2950   65.0160   15.6650 C.3     2  LEU2        0.1596
     59 C          70.0600   65.0300   16.5970 C.2     2  LEU2        0.2287
     60 O          69.4020   64.0080   16.7960 O.2     2  LEU2       -0.2864
     61 CB         72.5850   64.8800   16.4610 C.3     2  LEU2        0.0297
     62 CG         72.8020   63.5870   17.2090 C.3     2  LEU2        0.0022
     63 CD1        72.6500   62.3600   16.2860 C.3     2  LEU2        0.0001
     64 CD2        74.1590   63.6220   17.8940 C.3     2  LEU2        0.0001
     65 N          67.1030   63.9940   14.4570 N.3     1  ALA1       -0.1245
     66 CA         67.1610   62.6740   13.8230 C.3     1  ALA1        0.1562
     67 C          66.1680   61.7250   14.4790 C.2     1  ALA1        0.2260
     68 O          65.8810   61.8520   15.6490 O.2     1  ALA1       -0.2867
     69 CB         68.5510   62.1060   13.8970 C.3     1  ALA1        0.0290
     70 N          67.5270   55.9220   14.0780 N.3     1  LEU1       -0.1245
     71 CA         68.8600   56.2430   13.5940 C.3     1  LEU1        0.1561
     72 C          69.8140   56.4490   14.7570 C.2     1  LEU1        0.2260
     73 O          70.9190   55.9510   14.7650 O.2     1  LEU1       -0.2867
     74 CB         68.8290   57.5020   12.7190 C.3     1  LEU1        0.0270
     75 CG         70.2080   57.9460   12.2030 C.3     1  LEU1        0.0019
     76 CD1        70.7720   56.8940   11.2550 C.3     1  LEU1        0.0001
     77 CD2        70.0950   59.2810   11.5010 C.3     1  LEU1        0.0001
     78 N          70.7820   53.2500   16.4730 N.3     1  TRP1       -0.1227
     79 CA         71.7020   52.4870   15.6550 C.3     1  TRP1        0.1734
     80 C          73.1000   53.1100   15.7000 C.2     1  TRP1        0.2595
     81 O          74.0830   52.4040   15.8190 O.2     1  TRP1       -0.2718
     82 CB         71.1800   52.4240   14.2270 C.3     1  TRP1        0.0524
     83 CG         72.0530   51.6980   13.3000 C.2     1  TRP1       -0.0167
     84 CD1        72.2440   50.3370   13.2300 C.3     1  TRP1        0.1477
     85 CD2        72.8450   52.2670   12.2630 C.ar    1  TRP1        0.0113
     86 NE1        73.1190   50.0390   12.2110 N.2     1  TRP1       -0.2659
     87 CE2        73.4990   51.2030   11.5960 C.ar    1  TRP1        0.0758
     88 CE3        73.0660   53.5710   11.8150 C.ar    1  TRP1        0.0009
     89 CZ2        74.3770   51.4150   10.5280 C.ar    1  TRP1        0.0187
     90 CZ3        73.9200   53.7750   10.7430 C.ar    1  TRP1        0.0001
     91 CH2        74.5700   52.7050   10.1150 C.ar    1  TRP1        0.0015
     92 N          73.1650   54.4350   15.6120 N.am    2  LEU2       -0.1980
     93 CA         74.4220   55.1700   15.6180 C.3     2  LEU2        0.1596
     94 C          75.1650   54.9800   16.9400 C.2     2  LEU2        0.2287
     95 O          76.3940   54.8460   16.9620 O.2     2  LEU2       -0.2864
     96 CB         74.1640   56.6560   15.3650 C.3     2  LEU2        0.0297
     97 CG         73.8900   57.0840   13.9230 C.3     2  LEU2        0.0022
     98 CD2        73.5960   58.5820   13.8580 C.3     2  LEU2        0.0001
     99 CD1        75.0410   56.7240   13.0110 C.3     2  LEU2        0.0001
    100 N          76.8000   51.5290   16.4730 N.3     1  VAL1       -0.1231
    101 CA         77.8600   51.3210   15.4780 C.3     1  VAL1        0.1692
    102 C          79.0160   52.2940   15.5760 C.2     1  VAL1        0.2591
    103 O          80.1240   51.9650   15.1500 O.2     1  VAL1       -0.2718
    104 CB         77.3320   51.2730   14.0210 C.3     1  VAL1        0.0266
    105 CG2        76.3420   50.1770   13.8650 C.3     1  VAL1        0.0020
    106 CG1        76.7420   52.5880   13.5740 C.3     1  VAL1        0.0020
    107 N          78.7700   53.4810   16.1350 N.am    2  LEU2       -0.1980
    108 CA         79.7980   54.5190   16.2410 C.3     2  LEU2        0.1596
    109 C          80.5750   54.4520   17.5300 C.2     2  LEU2        0.2287
    110 O          81.7200   54.9010   17.5810 O.2     2  LEU2       -0.2864
    111 CB         79.1950   55.9330   16.1340 C.3     2  LEU2        0.0297
    112 CG         78.8980   56.4170   14.7290 C.3     2  LEU2        0.0022
    113 CD2        78.3880   57.8410   14.8160 C.3     2  LEU2        0.0001
    114 CD1        80.1320   56.3290   13.8180 C.3     2  LEU2        0.0001
@<TRIPOS>UNITY_ATOM_ATTR
41 1
charge -1
@<TRIPOS>BOND
     1     1     2    1
     2     2     5    1
     3     2     3    1
     4     3     4    2
     5     5     6    1
     6     6     7    1
     7     6     8    1
     8     9    10    1
     9    10    13    1
    10    10    11    1
    11    11    20   am
    12    11    12    2
    13    13    14    1
    14    14    15    1
    15    15    16    1
    16    16    17    2
    17    17    18    1
    18    17    19    1
    19    20    21    1
    20    21    24    1
    21    21    22    1
    22    22    23    2
    23    24    26    1
    24    24    25    1
    25    27    28    1
    26    28    31    1
    27    28    29    1
    28    29    34   am
    29    29    30    2
    30    31    33    1
    31    31    32    1
    32    34    35    1
    33    35    38    1
    34    35    36    1
    35    36    37    2
    36    38    39    1
    37    39    40    1
    38    40    42   ar
    39    40    41   ar
    40    43    44    1
    41    44    47    1
    42    44    45    1
    43    45    46    2
    44    47    48    1
    45    48    49    1
    46    48    50    1
    47    51    52    1
    48    52    55    1
    49    52    53    1
    50    53    54    2
    51    53    57   am
    52    55    56    1
    53    57    58    1
    54    58    61    1
    55    58    59    1
    56    59    60    2
    57    61    62    1
    58    62    63    1
    59    62    64    1
    60    65    66    1
    61    66    69    1
    62    66    67    1
    63    67    68    2
    64    70    71    1
    65    71    74    1
    66    71    72    1
    67    72    73    2
    68    74    75    1
    69    75    76    1
    70    75    77    1
    71    78    79    1
    72    79    82    1
    73    79    80    1
    74    80    92   am
    75    80    81    2
    76    82    83    1
    77    83    85    2
    78    83    84    1
    79    84    86    1
    80    85    87   ar
    81    85    88   ar
    82    86    87    2
    83    87    89   ar
    84    88    90   ar
    85    89    91   ar
    86    90    91   ar
    87    92    93    1
    88    93    96    1
    89    93    94    1
    90    94    95    2
    91    96    97    1
    92    97    99    1
    93    97    98    1
    94   100   101    1
    95   101   104    1
    96   101   102    1
    97   102   103    2
    98   102   107   am
    99   104   106    1
   100   104   105    1
   101   107   108    1
   102   108   111    1
   103   108   109    1
   104   109   110    2
   105   111   112    1
   106   112   114    1
   107   112   113    1
