@<TRIPOS>MOLECULE
./2ixl/protein.pdb
 304 303 0 0 0
SMALL
GASTEIGER

@<TRIPOS>ATOM
      1 N           2.7350    9.5090    5.1110 N.3     1  GLN1       -0.1245
      2 CA          2.0450    8.5080    5.9500 C.3     1  GLN1        0.1566
      3 C           2.5570    7.1140    5.5750 C.2     1  GLN1        0.2260
      4 O           2.7860    6.8190    4.3950 O.2     1  GLN1       -0.2867
      5 CB          0.5230    8.5980    5.7520 C.3     1  GLN1        0.0367
      6 CG         -0.3260    7.5470    6.4940 C.3     1  GLN1        0.0905
      7 CD         -1.8250    7.7470    6.3520 C.2     1  GLN1        0.2608
      8 OE1        -2.6040    6.8060    6.5490 O.2     1  GLN1       -0.2717
      9 NE2        -2.2430    8.9550    6.0420 N.am    1  GLN1       -0.0878
     10 N           1.4920    3.1460    6.0970 N.3     1  ASN1       -0.1225
     11 CA          0.4570    2.1730    6.5080 C.3     1  ASN1        0.1785
     12 C           1.0110    0.7540    6.4810 C.2     1  ASN1        0.2597
     13 O           1.9100    0.4530    5.6820 O.2     1  ASN1       -0.2718
     14 CB         -0.7660    2.2050    5.5820 C.3     1  ASN1        0.1169
     15 CG         -1.4550    3.5620    5.5360 C.2     1  ASN1        0.2627
     16 OD1        -1.9480    3.9840    4.4720 O.2     1  ASN1       -0.2716
     17 ND2        -1.5080    4.2410    6.6650 N.am    1  ASN1       -0.0877
     18 N           0.4820   -0.1070    7.3530 N.am    2  VAL2       -0.1966
     19 CA          0.8140   -1.5410    7.3360 C.3     2  VAL2        0.1727
     20 C          -0.4690   -2.3370    7.5080 C.2     2  VAL2        0.2617
     21 O          -1.2790   -2.0150    8.3730 O.2     2  VAL2       -0.2715
     22 CB          1.8150   -1.9310    8.4680 C.3     2  VAL2        0.0290
     23 CG2         2.0760   -3.4430    8.4740 C.3     2  VAL2        0.0023
     24 CG1         3.1310   -1.1500    8.3320 C.3     2  VAL2        0.0023
     25 N          -0.6750   -3.3340    6.6460 N.am    3  SER3       -0.1936
     26 CA         -1.7650   -4.3060    6.8330 C.3     3  SER3        0.2055
     27 C          -1.1920   -5.7120    6.9640 C.2     3  SER3        0.2643
     28 O          -0.1520   -6.0340    6.3720 O.2     3  SER3       -0.2714
     29 CB         -2.8260   -4.2350    5.7200 C.3     3  SER3        0.2130
     30 OG         -2.3000   -4.6290    4.4610 O.3     3  SER3       -0.2179
     31 N          -1.8440   -6.5260    7.7880 N.am    4  PHE4       -0.1973
     32 CA         -1.4600   -7.9140    7.9760 C.3     4  PHE4        0.1639
     33 C          -2.6530   -8.7560    7.5270 C.2     4  PHE4        0.2290
     34 O          -3.7830   -8.4880    7.9350 O.2     4  PHE4       -0.2864
     35 CB         -1.1320   -8.1630    9.4550 C.3     4  PHE4        0.0560
     36 CG         -0.4430   -9.4880    9.7240 C.ar    4  PHE4       -0.0200
     37 CD1         0.8590   -9.7230    9.2790 C.ar    4  PHE4       -0.0042
     38 CD2        -1.1040  -10.4920   10.4310 C.ar    4  PHE4       -0.0042
     39 CE1         1.5000  -10.9600    9.5240 C.ar    4  PHE4       -0.0003
     40 CE2        -0.4790  -11.7240   10.6760 C.ar    4  PHE4       -0.0003
     41 CZ          0.8310  -11.9470   10.2240 C.ar    4  PHE4       -0.0000
     42 N          -8.1710  -10.8930   -0.3260 N.3     1  LEU1       -0.1231
     43 CA         -8.0380  -10.0370   -1.5070 C.3     1  LEU1        0.1693
     44 C          -8.5140   -8.6290   -1.1140 C.2     1  LEU1        0.2592
     45 O          -9.6310   -8.4820   -0.6110 O.2     1  LEU1       -0.2718
     46 CB         -8.8690  -10.6340   -2.6650 C.3     1  LEU1        0.0284
     47 CG         -8.7430  -10.0980   -4.0970 C.3     1  LEU1        0.0019
     48 CD1        -9.3920  -11.0800   -5.0820 C.3     1  LEU1        0.0001
     49 CD2        -9.3610   -8.6980   -4.2640 C.3     1  LEU1        0.0001
     50 N          -7.6400   -7.6260   -1.2780 N.am    2  ARG2       -0.1966
     51 CA         -7.9700   -6.2200   -0.9990 C.3     2  ARG2        0.1729
     52 C          -7.8660   -5.4230   -2.3080 C.2     2  ARG2        0.2617
     53 O          -6.8580   -5.5260   -3.0170 O.2     2  ARG2       -0.2715
     54 CB         -7.0130   -5.6440    0.0600 C.3     2  ARG2        0.0348
     55 CG         -6.9550   -6.4360    1.3960 C.3     2  ARG2        0.0492
     56 CD         -6.1620   -5.6520    2.4680 C.3     2  ARG2        0.2205
     57 NE         -5.9020   -6.4110    3.7060 N.pl3   2  ARG2       -0.0865
     58 CZ         -6.2940   -6.0650    4.9340 C.cat   2  ARG2        0.5346
     59 NH1        -6.9970   -4.9560    5.1460 N.pl3   2  ARG2        0.1354
     60 NH2        -5.9830   -6.8440    5.9720 N.pl3   2  ARG2        0.1354
     61 N          -8.9130   -4.6680   -2.6460 N.am    3  GLY3       -0.1940
     62 CA         -8.9030   -3.8250   -3.8610 C.3     3  GLY3        0.2014
     63 C         -10.2720   -3.7310   -4.5320 C.2     3  GLY3        0.2639
     64 O         -11.2470   -4.3000   -4.0300 O.2     3  GLY3       -0.2714
     65 N         -10.3800   -3.0160   -5.6530 N.am    4  LEU4       -0.1963
     66 CA         -9.3010   -2.2330   -6.2580 C.3     4  LEU4        0.1728
     67 C          -9.5470   -0.7480   -5.9380 C.2     4  LEU4        0.2616
     68 O         -10.6430   -0.2320   -6.1610 O.2     4  LEU4       -0.2715
     69 CB         -9.2800   -2.4770   -7.7800 C.3     4  LEU4        0.0311
     70 CG         -8.8200   -3.8650   -8.2450 C.3     4  LEU4        0.0022
     71 CD1        -9.4870   -4.2590   -9.5850 C.3     4  LEU4        0.0001
     72 CD2        -7.3150   -3.9390   -8.3490 C.3     4  LEU4        0.0001
     73 N          -8.5360   -0.0690   -5.3910 N.am    5  HIS5       -0.1959
     74 CA         -8.7420    1.2470   -4.7720 C.3     5  HIS5        0.1787
     75 C          -7.8250    2.3050   -5.3840 C.2     5  HIS5        0.2620
     76 O          -6.6010    2.1090   -5.4260 O.2     5  HIS5       -0.2715
     77 CB         -8.4480    1.1870   -3.2570 C.3     5  HIS5        0.0785
     78 CG         -9.1570    0.0880   -2.5240 C.ar    5  HIS5        0.0821
     79 ND1        -8.6860   -0.4220   -1.3340 N.ar    5  HIS5       -0.2267
     80 CD2       -10.2780   -0.6150   -2.8160 C.ar    5  HIS5        0.1154
     81 CE1        -9.5080   -1.3670   -0.9050 C.ar    5  HIS5        0.1986
     82 NE2       -10.4790   -1.5070   -1.7880 N.ar    5  HIS5       -0.2212
     83 N          -8.4220    3.4070   -5.8500 N.am    6  ALA6       -0.1963
     84 CA         -7.6930    4.5020   -6.4930 C.3     6  ALA6        0.1728
     85 C          -7.9130    5.8450   -5.7780 C.2     6  ALA6        0.2616
     86 O          -8.4240    6.8090   -6.3630 O.2     6  ALA6       -0.2715
     87 CB         -8.0840    4.5970   -7.9910 C.3     6  ALA6        0.0334
     88 N          -7.5220    5.8920   -4.5050 N.am    7  GLU7       -0.1964
     89 CA         -7.5530    7.1210   -3.7110 C.3     7  GLU7        0.1717
     90 C          -6.6390    8.2100   -4.3060 C.2     7  GLU7        0.2458
     91 O          -5.6600    7.8980   -4.9960 O.2     7  GLU7       -0.2730
     92 CB         -7.1390    6.8330   -2.2700 C.3     7  GLU7        0.0369
     93 CG         -8.1050    5.9550   -1.4780 C.3     7  GLU7        0.0440
     94 CD         -7.6050    4.5380   -1.2610 C.2     7  GLU7        0.0504
     95 OE1        -6.8550    4.0170   -2.1160 O.co2   7  GLU7       -0.5492
     96 OE2        -7.9780    3.9410   -0.2250 O.co2   7  GLU7       -0.5492
     97 N          -6.9630    9.4920   -4.0580 N.am    8  PRO8       -0.2716
     98 CA         -6.2140   10.5980   -4.6850 C.3     8  PRO8        0.1536
     99 C          -4.8320   10.8810   -4.0690 C.2     8  PRO8        0.2599
    100 O          -4.5710   11.9870   -3.5700 O.2     8  PRO8       -0.2715
    101 CB         -7.1730   11.7920   -4.5100 C.3     8  PRO8        0.0310
    102 CG         -7.8840   11.4780   -3.2170 C.3     8  PRO8        0.0237
    103 CD         -8.1030    9.9920   -3.2570 C.3     8  PRO8        0.0939
    104 N          -3.9560    9.8820   -4.1200 N.am    9  TRP9       -0.1960
    105 CA         -2.5550   10.0430   -3.6870 C.3     9  TRP9        0.1768
    106 C          -1.6870    8.9550   -4.3110 C.2     9  TRP9        0.2619
    107 O          -2.2200    7.9520   -4.8090 O.2     9  TRP9       -0.2715
    108 CB         -2.4130   10.0630   -2.1530 C.3     9  TRP9        0.0553
    109 CG         -3.0840    8.9210   -1.3920 C.2     9  TRP9       -0.0136
    110 CD1        -2.6070    7.6500   -1.2040 C.2     9  TRP9        0.0907
    111 CD2        -4.3330    8.9890   -0.6890 C.3     9  TRP9        0.0819
    112 NE1        -3.4980    6.9160   -0.4400 N.2     9  TRP9       -0.2482
    113 CE2        -4.5570    7.7220   -0.1040 C.2     9  TRP9        0.0665
    114 CE3        -5.2790   10.0100   -0.4880 C.2     9  TRP9       -0.0164
    115 CZ2        -5.7050    7.4420    0.6610 C.2     9  TRP9        0.0153
    116 CZ3        -6.4110    9.7310    0.2650 C.2     9  TRP9       -0.0038
    117 CH2        -6.6160    8.4590    0.8210 C.2     9  TRP9        0.0009
    118 N          -0.3710    9.1940   -4.3510 N.am   10  ASP10      -0.1959
    119 CA          0.6220    8.2070   -4.8230 C.3    10  ASP10       0.1783
    120 C           0.9280    7.1730   -3.7280 C.2    10  ASP10       0.2619
    121 O           0.8040    7.4730   -2.5310 O.2    10  ASP10      -0.2715
    122 CB          1.9290    8.9110   -5.2180 C.3    10  ASP10       0.0728
    123 CG          1.7440    9.9460   -6.3300 C.2    10  ASP10       0.0526
    124 OD1         1.0870    9.6670   -7.3600 O.co2  10  ASP10      -0.5491
    125 OD2         2.2890   11.0650   -6.1730 O.co2  10  ASP10      -0.5491
    126 N           1.3360    5.9720   -4.1510 N.am   11  LYS11      -0.1977
    127 CA          1.6700    4.8640   -3.2270 C.3    11  LYS11       0.1596
    128 C           2.9810    4.1790   -3.6000 C.2    11  LYS11       0.2287
    129 O           3.2260    3.9010   -4.7670 O.2    11  LYS11      -0.2864
    130 CB          0.5480    3.8030   -3.1960 C.3    11  LYS11       0.0298
    131 CG         -0.8550    4.2990   -2.7690 C.3    11  LYS11       0.0038
    132 CD         -1.9370    3.2560   -3.1090 C.3    11  LYS11       0.0206
    133 CE         -3.3270    3.7630   -2.7590 C.3    11  LYS11       0.1093
    134 NZ         -4.3860    2.8380   -3.2720 N.3    11  LYS11      -0.1314
    135 N           4.6760    0.6680   -2.6030 N.3     1  ILE1       -0.1245
    136 CA          4.2250   -0.5620   -1.9080 C.3     1  ILE1        0.1561
    137 C           5.2920   -1.6690   -1.8870 C.2     1  ILE1        0.2260
    138 O           6.0100   -1.8370   -2.8580 O.2     1  ILE1       -0.2867
    139 CB          2.9520   -1.1010   -2.5990 C.3     1  ILE1        0.0252
    140 CG1         1.8060   -0.0810   -2.5000 C.3     1  ILE1        0.0019
    141 CG2         2.5410   -2.4230   -2.0160 C.3     1  ILE1        0.0019
    142 CD1         0.7490   -0.2770   -3.5340 C.3     1  ILE1        0.0001
    143 N          -5.1560    0.1550   -7.0720 N.3     1  ASN1       -0.1225
    144 CA         -4.2670   -0.8390   -6.4390 C.3     1  ASN1        0.1785
    145 C          -5.0340   -1.9850   -5.7630 C.2     1  ASN1        0.2598
    146 O          -6.0910   -1.7680   -5.1570 O.2     1  ASN1       -0.2718
    147 CB         -3.3900   -0.1220   -5.3950 C.3     1  ASN1        0.1169
    148 CG         -2.3690   -1.0410   -4.7380 C.2     1  ASN1        0.2627
    149 OD1        -1.4770   -1.5770   -5.4030 O.2     1  ASN1       -0.2716
    150 ND2        -2.4690   -1.1890   -3.4090 N.am    1  ASN1       -0.0877
    151 N          -4.4820   -3.1940   -5.8460 N.am    2  GLY2       -0.1942
    152 CA         -5.0580   -4.3530   -5.1650 C.3     2  GLY2        0.2014
    153 C          -4.0650   -5.4930   -5.0330 C.2     2  GLY2        0.2638
    154 O          -3.0030   -5.4860   -5.6740 O.2     2  GLY2       -0.2714
    155 N          -4.4090   -6.4840   -4.2070 N.am    3  PHE3       -0.1973
    156 CA         -3.5750   -7.6960   -4.0720 C.3     3  PHE3        0.1639
    157 C          -4.3550   -8.8780   -3.5230 C.2     3  PHE3        0.2290
    158 O          -5.3790   -8.6890   -2.8630 O.2     3  PHE3       -0.2864
    159 CB         -2.3230   -7.4460   -3.2060 C.3     3  PHE3        0.0560
    160 CG         -2.6190   -7.1420   -1.7540 C.ar    3  PHE3       -0.0200
    161 CD2        -2.6000   -8.1580   -0.8040 C.ar    3  PHE3       -0.0042
    162 CD1        -2.8800   -5.8380   -1.3320 C.ar    3  PHE3       -0.0042
    163 CE2        -2.8530   -7.8950    0.5440 C.ar    3  PHE3       -0.0003
    164 CE1        -3.1330   -5.5550    0.0200 C.ar    3  PHE3       -0.0003
    165 CZ         -3.1180   -6.5920    0.9600 C.ar    3  PHE3       -0.0000
    166 N           2.1190   -6.1190    4.6270 N.3     1  TYR1       -0.1241
    167 CA          2.1540   -5.2880    3.4260 C.3     1  TYR1        0.1605
    168 C           2.3080   -3.8340    3.8820 C.2     1  TYR1        0.2264
    169 O           1.4750   -3.3120    4.6260 O.2     1  TYR1       -0.2867
    170 CB          0.8390   -5.5420    2.6930 C.3     1  TYR1        0.0534
    171 CG          0.5840   -4.8850    1.3590 C.ar    1  TYR1       -0.0201
    172 CD1         0.8560   -5.5610    0.1650 C.ar    1  TYR1       -0.0009
    173 CD2        -0.0160   -3.6300    1.2850 C.ar    1  TYR1       -0.0009
    174 CE1         0.5620   -4.9820   -1.0880 C.ar    1  TYR1        0.0417
    175 CE2        -0.3130   -3.0390    0.0560 C.ar    1  TYR1        0.0417
    176 CZ         -0.0260   -3.7210   -1.1250 C.ar    1  TYR1        0.1957
    177 OH         -0.3300   -3.1110   -2.3240 O.3     1  TYR1       -0.2866
    178 N           3.2830    0.2930    3.1070 N.3     1  TYR1       -0.1241
    179 CA          3.3730    1.2660    2.0300 C.3     1  TYR1        0.1605
    180 C           3.5200    2.7060    2.5070 C.2     1  TYR1        0.2264
    181 O           3.1700    3.0300    3.6530 O.2     1  TYR1       -0.2867
    182 CB          2.2770    1.0350    0.9800 C.3     1  TYR1        0.0534
    183 CG          0.8480    1.0340    1.4810 C.ar    1  TYR1       -0.0201
    184 CD1        -0.0240    2.0480    1.1080 C.ar    1  TYR1       -0.0009
    185 CD2         0.3580   -0.0060    2.2850 C.ar    1  TYR1       -0.0009
    186 CE1        -1.3210    2.0610    1.5560 C.ar    1  TYR1        0.0417
    187 CE2        -0.9420   -0.0160    2.7230 C.ar    1  TYR1        0.0417
    188 CZ         -1.7800    1.0250    2.3570 C.ar    1  TYR1        0.1957
    189 OH         -3.0870    1.0360    2.7970 O.3     1  TYR1       -0.2866
    190 N           2.6990    6.7300    1.5060 N.3     1  VAL1       -0.1245
    191 CA          1.7480    7.5390    0.7180 C.3     1  VAL1        0.1561
    192 C           1.9220    9.0350    1.0070 C.2     1  VAL1        0.2260
    193 O           2.5130    9.3990    2.0270 O.2     1  VAL1       -0.2867
    194 CB          0.2800    7.1100    0.9640 C.3     1  VAL1        0.0252
    195 CG1         0.1060    5.6210    0.7170 C.3     1  VAL1        0.0019
    196 CG2        -0.2060    7.5130    2.3580 C.3     1  VAL1        0.0019
    197 N          -0.6890   11.7320    0.8150 N.3     1  ASP1       -0.1227
    198 CA         -1.7980   12.5490    1.3170 C.3     1  ASP1        0.1748
    199 C          -2.5430   11.7250    2.3750 C.2     1  ASP1        0.2596
    200 O          -2.2540   10.5290    2.5430 O.2     1  ASP1       -0.2718
    201 CB         -2.7450   13.0290    0.1980 C.3     1  ASP1        0.0701
    202 CG         -3.3930   14.3970    0.5130 C.2     1  ASP1        0.0523
    203 OD2        -3.4230   14.7960    1.6980 O.co2   1  ASP1       -0.5491
    204 OD1        -3.8440   15.1060   -0.4300 O.co2   1  ASP1       -0.5491
    205 N          -3.4770   12.3810    3.0710 N.am    2  TYR2       -0.1962
    206 CA         -4.1070   11.8420    4.2890 C.3     2  TYR2        0.1771
    207 C          -5.5820   11.4240    4.1120 C.2     2  TYR2        0.2620
    208 O          -6.4580   12.2450    3.8000 O.2     2  TYR2       -0.2715
    209 CB         -3.9640   12.8450    5.4570 C.3     2  TYR2        0.0574
    210 CG         -2.5320   13.3520    5.6620 C.ar    2  TYR2       -0.0198
    211 CD1        -2.2190   14.7100    5.5400 C.ar    2  TYR2       -0.0009
    212 CD2        -1.4820   12.4530    5.9380 C.ar    2  TYR2       -0.0009
    213 CE1        -0.8830   15.1640    5.7210 C.ar    2  TYR2        0.0417
    214 CE2        -0.1640   12.8870    6.0940 C.ar    2  TYR2        0.0417
    215 CZ          0.1320   14.2420    5.9960 C.ar    2  TYR2        0.1957
    216 OH          1.4520   14.6510    6.1720 O.3     2  TYR2       -0.2866
    217 N          -5.8240   10.1430    4.3720 N.am    3  TRP3       -0.1960
    218 CA         -7.1480    9.5090    4.3440 C.3     3  TRP3        0.1768
    219 C          -8.0580   10.0660    5.4370 C.2     3  TRP3        0.2619
    220 O          -7.6060   10.3810    6.5430 O.2     3  TRP3       -0.2715
    221 CB         -6.9420    8.0030    4.5600 C.3     3  TRP3        0.0553
    222 CG         -8.1710    7.1160    4.5470 C.2     3  TRP3       -0.0136
    223 CD1        -8.6770    6.4380    3.4740 C.2     3  TRP3        0.0907
    224 CD2        -8.9700    6.7340    5.6760 C.3     3  TRP3        0.0819
    225 NE1        -9.7740    5.6930    3.8510 N.2     3  TRP3       -0.2482
    226 CE2        -9.9750    5.8550    5.1970 C.2     3  TRP3        0.0665
    227 CE3        -8.9510    7.0640    7.0450 C.2     3  TRP3       -0.0164
    228 CZ2       -10.9480    5.2950    6.0410 C.2     3  TRP3        0.0153
    229 CZ3        -9.9240    6.5100    7.8840 C.2     3  TRP3       -0.0038
    230 CH2       -10.9020    5.6330    7.3750 C.2     3  TRP3        0.0009
    231 N          -9.3450   10.1950    5.1170 N.am    4  ALA4       -0.1963
    232 CA        -10.3550   10.5410    6.1120 C.3     4  ALA4        0.1728
    233 C         -11.6090    9.7440    5.7910 C.2     4  ALA4        0.2616
    234 O         -12.0120    9.6710    4.6410 O.2     4  ALA4       -0.2715
    235 CB        -10.6430   12.0310    6.1030 C.3     4  ALA4        0.0334
    236 N         -12.2140    9.1440    6.8110 N.am    5  LEU5       -0.1977
    237 CA        -13.4500    8.3690    6.6410 C.3     5  LEU5        0.1596
    238 C         -14.5440    9.1080    5.8520 C.2     5  LEU5        0.2287
    239 O         -15.1430    8.5390    4.9310 O.2     5  LEU5       -0.2864
    240 CB        -13.9960    7.9550    8.0140 C.3     5  LEU5        0.0297
    241 CG        -15.1770    6.9700    7.9910 C.3     5  LEU5        0.0022
    242 CD1       -14.7040    5.5460    7.6850 C.3     5  LEU5        0.0001
    243 CD2       -15.9580    6.9980    9.2950 C.3     5  LEU5        0.0001
    244 N         -14.3870    9.1920    1.9600 N.3     1  LYS1       -0.1245
    245 CA        -14.4360    7.9470    1.1780 C.3     1  LYS1        0.1561
    246 C         -15.4040    7.9790   -0.0310 C.2     1  LYS1        0.2260
    247 O         -15.0580    7.4660   -1.0980 O.2     1  LYS1       -0.2867
    248 CB        -14.6780    6.7180    2.0770 C.3     1  LYS1        0.0271
    249 CG        -13.9690    5.4630    1.6070 C.3     1  LYS1        0.0035
    250 CD        -14.1290    4.3150    2.5980 C.3     1  LYS1        0.0206
    251 CE        -14.0650    2.9620    1.8950 C.3     1  LYS1        0.1093
    252 NZ        -12.7310    2.6150    1.3780 N.3     1  LYS1       -0.1314
    253 N         -13.6890    9.1050   -3.1460 N.3     1  TYR1       -0.1241
    254 CA        -12.5800    8.3210   -3.6880 C.3     1  TYR1        0.1605
    255 C         -13.0520    7.3820   -4.8160 C.2     1  TYR1        0.2264
    256 O         -14.2230    6.9720   -4.8380 O.2     1  TYR1       -0.2867
    257 CB        -11.9010    7.4950   -2.5870 C.3     1  TYR1        0.0534
    258 CG        -11.3360    8.2450   -1.3700 C.ar    1  TYR1       -0.0201
    259 CD1       -11.0080    9.6070   -1.4170 C.ar    1  TYR1       -0.0009
    260 CD2       -11.1050    7.5600   -0.1720 C.ar    1  TYR1       -0.0009
    261 CE1       -10.4720   10.2680   -0.2860 C.ar    1  TYR1        0.0417
    262 CE2       -10.5640    8.2030    0.9570 C.ar    1  TYR1        0.0417
    263 CZ        -10.2540    9.5530    0.8960 C.ar    1  TYR1        0.1957
    264 OH         -9.7340   10.1800    2.0170 O.3     1  TYR1       -0.2866
    265 N         -13.0890    3.7870   -6.7810 N.3     1  PHE1       -0.1241
    266 CA        -12.9220    2.3470   -6.5530 C.3     1  PHE1        0.1605
    267 C         -13.4870    1.5690   -7.7330 C.2     1  PHE1        0.2264
    268 O         -14.3930    2.0500   -8.4210 O.2     1  PHE1       -0.2867
    269 CB        -13.6750    1.8960   -5.3010 C.3     1  PHE1        0.0534
    270 CG        -13.2700    2.6180   -4.0300 C.ar    1  PHE1       -0.0203
    271 CD1       -14.0480    3.6640   -3.5320 C.ar    1  PHE1       -0.0042
    272 CD2       -12.1410    2.2270   -3.3190 C.ar    1  PHE1       -0.0042
    273 CE1       -13.6790    4.3240   -2.3490 C.ar    1  PHE1       -0.0003
    274 CE2       -11.7640    2.8830   -2.1360 C.ar    1  PHE1       -0.0003
    275 CZ        -12.5380    3.9310   -1.6510 C.ar    1  PHE1       -0.0000
    276 N         -13.5850   -7.6920    2.1540 N.3     1  SER1       -0.1217
    277 CA        -14.4060   -6.8240    3.0090 C.3     1  SER1        0.1889
    278 CB        -15.8030   -6.6190    2.4280 C.2     1  SER1        0.2288
    279 OG        -16.0210   -6.7830    1.2160 O.2     1  SER1       -0.2866
    280 C         -13.7300   -5.4590    3.1880 C.3     1  SER1        0.2089
    281 O         -13.6820   -4.7430    1.9520 O.3     1  SER1       -0.2183
    282 N         -17.0940   -3.7030    2.0590 N.3     1  ALA1       -0.1231
    283 CA        -16.8610   -2.5890    1.1320 C.3     1  ALA1        0.1694
    284 C         -16.4150   -3.0690   -0.2450 C.2     1  ALA1        0.2592
    285 O         -16.9610   -2.6350   -1.2620 O.2     1  ALA1       -0.2718
    286 CB        -15.8550   -1.6130    1.7070 C.3     1  ALA1        0.0304
    287 N         -15.4430   -3.9810   -0.2750 N.am    2  ASP2       -0.1976
    288 CA        -14.9060   -4.4660   -1.5480 C.3     2  ASP2        0.1651
    289 C         -15.9050   -5.2970   -2.3450 C.2     2  ASP2        0.2291
    290 O         -15.8010   -5.4060   -3.5710 O.2     2  ASP2       -0.2864
    291 CB        -13.5800   -5.2080   -1.3400 C.3     2  ASP2        0.0714
    292 CG        -12.4140   -4.2600   -1.1340 C.2     2  ASP2        0.0525
    293 OD1       -12.5990   -3.0560   -1.4000 O.co2   2  ASP2       -0.5491
    294 OD2       -11.3080   -4.7080   -0.7320 O.co2   2  ASP2       -0.5491
    295 N         -18.1970   -2.2500   -4.3700 N.3     1  HIS1       -0.1241
    296 CA        -17.6540   -1.2160   -5.2650 C.3     1  HIS1        0.1621
    297 C         -18.2580   -1.3670   -6.6770 C.2     1  HIS1        0.2264
    298 O         -18.6400   -2.4670   -7.0660 O.2     1  HIS1       -0.2867
    299 CB        -16.1190   -1.2770   -5.3010 C.3     1  HIS1        0.0745
    300 CG        -15.4580   -0.8630   -4.0190 C.ar    1  HIS1        0.0817
    301 ND1       -15.9080    0.1900   -3.2480 N.ar    1  HIS1       -0.2268
    302 CD2       -14.3620   -1.3480   -3.3880 C.ar    1  HIS1        0.1154
    303 CE1       -15.1230    0.3280   -2.1930 C.ar    1  HIS1        0.1986
    304 NE2       -14.1770   -0.5950   -2.2530 N.ar    1  HIS1       -0.2212
@<TRIPOS>UNITY_ATOM_ATTR
95 1
charge -1
124 1
charge -1
203 1
charge -1
293 1
charge -1
@<TRIPOS>BOND
     1     1     2    1
     2     2     3    1
     3     2     5    1
     4     3     4    2
     5     5     6    1
     6     6     7    1
     7     7     9   am
     8     7     8    2
     9    10    11    1
    10    11    14    1
    11    11    12    1
    12    12    13    2
    13    12    18   am
    14    14    15    1
    15    15    16    2
    16    15    17   am
    17    18    19    1
    18    19    20    1
    19    19    22    1
    20    20    25   am
    21    20    21    2
    22    22    24    1
    23    22    23    1
    24    25    26    1
    25    26    29    1
    26    26    27    1
    27    27    28    2
    28    27    31   am
    29    29    30    1
    30    31    32    1
    31    32    33    1
    32    32    35    1
    33    33    34    2
    34    35    36    1
    35    36    37   ar
    36    36    38   ar
    37    37    39   ar
    38    38    40   ar
    39    39    41   ar
    40    40    41   ar
    41    42    43    1
    42    43    46    1
    43    43    44    1
    44    44    50   am
    45    44    45    2
    46    46    47    1
    47    47    48    1
    48    47    49    1
    49    50    51    1
    50    51    52    1
    51    51    54    1
    52    52    53    2
    53    52    61   am
    54    54    55    1
    55    55    56    1
    56    56    57    1
    57    57    58    2
    58    58    59    1
    59    58    60    1
    60    61    62    1
    61    62    63    1
    62    63    65   am
    63    63    64    2
    64    65    66    1
    65    66    69    1
    66    66    67    1
    67    67    68    2
    68    67    73   am
    69    69    70    1
    70    70    71    1
    71    70    72    1
    72    73    74    1
    73    74    75    1
    74    74    77    1
    75    75    83   am
    76    75    76    2
    77    77    78    1
    78    78    80   ar
    79    78    79   ar
    80    79    81   ar
    81    80    82   ar
    82    81    82   ar
    83    83    84    1
    84    84    87    1
    85    84    85    1
    86    85    86    2
    87    85    88   am
    88    88    89    1
    89    89    90    1
    90    89    92    1
    91    90    91    2
    92    90    97   am
    93    92    93    1
    94    93    94    1
    95    94    95   ar
    96    94    96   ar
    97    97    98    1
    98    97   103    1
    99    98   101    1
   100    98    99    1
   101    99   104   am
   102    99   100    2
   103   101   102    1
   104   102   103    1
   105   104   105    1
   106   105   106    1
   107   105   108    1
   108   106   107    2
   109   106   118   am
   110   108   109    1
   111   109   110    2
   112   109   111    1
   113   110   112    1
   114   111   114    1
   115   111   113    1
   116   112   113    2
   117   113   115    1
   118   114   116    2
   119   115   117    2
   120   116   117    1
   121   118   119    1
   122   119   122    1
   123   119   120    1
   124   120   126   am
   125   120   121    2
   126   122   123    1
   127   123   124   ar
   128   123   125   ar
   129   126   127    1
   130   127   128    1
   131   127   130    1
   132   128   129    2
   133   130   131    1
   134   131   132    1
   135   132   133    1
   136   133   134    1
   137   135   136    1
   138   136   139    1
   139   136   137    1
   140   137   138    2
   141   139   140    1
   142   139   141    1
   143   140   142    1
   144   143   144    1
   145   144   145    1
   146   144   147    1
   147   145   151   am
   148   145   146    2
   149   147   148    1
   150   148   149    2
   151   148   150   am
   152   151   152    1
   153   152   153    1
   154   153   154    2
   155   153   155   am
   156   155   156    1
   157   156   157    1
   158   156   159    1
   159   157   158    2
   160   159   160    1
   161   160   162   ar
   162   160   161   ar
   163   161   163   ar
   164   162   164   ar
   165   163   165   ar
   166   164   165   ar
   167   166   167    1
   168   167   170    1
   169   167   168    1
   170   168   169    2
   171   170   171    1
   172   171   172   ar
   173   171   173   ar
   174   172   174   ar
   175   173   175   ar
   176   174   176   ar
   177   175   176   ar
   178   176   177    1
   179   178   179    1
   180   179   182    1
   181   179   180    1
   182   180   181    2
   183   182   183    1
   184   183   184   ar
   185   183   185   ar
   186   184   186   ar
   187   185   187   ar
   188   186   188   ar
   189   187   188   ar
   190   188   189    1
   191   190   191    1
   192   191   194    1
   193   191   192    1
   194   192   193    2
   195   194   195    1
   196   194   196    1
   197   197   198    1
   198   198   201    1
   199   198   199    1
   200   199   200    2
   201   199   205   am
   202   201   202    1
   203   202   204   ar
   204   202   203   ar
   205   205   206    1
   206   206   207    1
   207   206   209    1
   208   207   208    2
   209   207   217   am
   210   209   210    1
   211   210   211   ar
   212   210   212   ar
   213   211   213   ar
   214   212   214   ar
   215   213   215   ar
   216   214   215   ar
   217   215   216    1
   218   217   218    1
   219   218   221    1
   220   218   219    1
   221   219   231   am
   222   219   220    2
   223   221   222    1
   224   222   223    2
   225   222   224    1
   226   223   225    1
   227   224   226    1
   228   224   227    1
   229   225   226    2
   230   226   228    1
   231   227   229    2
   232   228   230    2
   233   229   230    1
   234   231   232    1
   235   232   233    1
   236   232   235    1
   237   233   234    2
   238   233   236   am
   239   236   237    1
   240   237   238    1
   241   237   240    1
   242   238   239    2
   243   240   241    1
   244   241   242    1
   245   241   243    1
   246   244   245    1
   247   245   246    1
   248   245   248    1
   249   246   247    2
   250   248   249    1
   251   249   250    1
   252   250   251    1
   253   251   252    1
   254   253   254    1
   255   254   255    1
   256   254   257    1
   257   255   256    2
   258   257   258    1
   259   258   259   ar
   260   258   260   ar
   261   259   261   ar
   262   260   262   ar
   263   261   263   ar
   264   262   263   ar
   265   263   264    1
   266   265   266    1
   267   266   267    1
   268   266   269    1
   269   267   268    2
   270   269   270    1
   271   270   271   ar
   272   270   272   ar
   273   271   273   ar
   274   272   274   ar
   275   273   275   ar
   276   274   275   ar
   277   276   277    1
   278   277   278    1
   279   277   280    1
   280   278   279    2
   281   280   281    1
   282   282   283    1
   283   283   284    1
   284   283   286    1
   285   284   285    2
   286   284   287   am
   287   287   288    1
   288   288   289    1
   289   288   291    1
   290   289   290    2
   291   291   292    1
   292   292   293   ar
   293   292   294   ar
   294   295   296    1
   295   296   297    1
   296   296   299    1
   297   297   298    2
   298   299   300    1
   299   300   302   ar
   300   300   301   ar
   301   301   303   ar
   302   302   304   ar
   303   303   304   ar
