@<TRIPOS>MOLECULE
./2zu3/protein.pdb
 127 124 0 0 0
SMALL
GASTEIGER

@<TRIPOS>ATOM
      1 N          18.2870    8.9170   12.5510 N.3     1  PHE1       -0.1241
      2 CA         17.9960    7.7030   13.2900 C.3     1  PHE1        0.1605
      3 C          18.2140    6.3990   12.5460 C.2     1  PHE1        0.2264
      4 O          18.1400    6.2940   11.3170 O.2     1  PHE1       -0.2867
      5 CB         16.5270    7.6850   13.7610 C.3     1  PHE1        0.0534
      6 CG         16.1090    8.9150   14.5100 C.ar    1  PHE1       -0.0203
      7 CD1        15.8460   10.1100   13.8470 C.ar    1  PHE1       -0.0042
      8 CD2        16.0250    8.8920   15.9320 C.ar    1  PHE1       -0.0042
      9 CE1        15.5060   11.2590   14.5810 C.ar    1  PHE1       -0.0003
     10 CE2        15.6910   10.0290   16.6410 C.ar    1  PHE1       -0.0003
     11 CZ         15.4300   11.2080   15.9780 C.ar    1  PHE1       -0.0000
     12 N          10.1090   10.0450   19.2780 N.3     1  HIS1       -0.1241
     13 CA         10.7290   11.3660   19.2110 C.3     1  HIS1        0.1621
     14 C          11.4200   11.6940   17.9040 C.2     1  HIS1        0.2264
     15 O          11.9980   12.7720   17.7790 O.2     1  HIS1       -0.2867
     16 CB         11.7260   11.5770   20.3440 C.3     1  HIS1        0.0745
     17 CG         12.7630   10.5140   20.4290 C.ar    1  HIS1        0.0817
     18 ND1        12.6450    9.4240   21.2760 N.ar    1  HIS1       -0.2268
     19 CD2        13.9200   10.3440   19.7460 C.ar    1  HIS1        0.1154
     20 CE1        13.6930    8.6320   21.1120 C.ar    1  HIS1        0.1986
     21 NE2        14.4790    9.1690   20.1880 N.ar    1  HIS1       -0.2212
     22 N           8.2060    3.6040   33.2120 N.3     1  LEU1       -0.1245
     23 CA          9.3190    4.5380   33.2790 C.3     1  LEU1        0.1561
     24 C           8.8640    5.9670   32.9530 C.2     1  LEU1        0.2260
     25 O           8.2050    6.2060   31.9320 O.2     1  LEU1       -0.2867
     26 CB         10.4330    4.1380   32.2830 C.3     1  LEU1        0.0270
     27 CG         11.5970    5.1340   32.1990 C.3     1  LEU1        0.0019
     28 CD2        12.3600    5.1920   33.5920 C.3     1  LEU1        0.0001
     29 CD1        12.5810    4.7210   31.0850 C.3     1  LEU1        0.0001
     30 N           9.7260    8.6390   31.2640 N.3     1  LEU1       -0.1231
     31 CA         10.8040    8.8740   30.3140 C.3     1  LEU1        0.1693
     32 C          10.8540   10.2640   29.7470 C.2     1  LEU1        0.2592
     33 O          10.0180   10.6430   28.9490 O.2     1  LEU1       -0.2718
     34 CB         10.7220    7.8470   29.1670 C.3     1  LEU1        0.0284
     35 CG         11.7110    7.8410   27.9810 C.3     1  LEU1        0.0019
     36 CD2        13.1060    7.4360   28.4430 C.3     1  LEU1        0.0001
     37 CD1        11.2000    6.8500   26.9120 C.3     1  LEU1        0.0001
     38 N          11.8750   11.0120   30.1480 N.am    2  GLY2       -0.1957
     39 CA         12.0260   12.3780   29.6810 C.3     2  GLY2        0.1869
     40 C          10.8670   13.2030   30.2320 C.2     2  GLY2        0.2309
     41 O          10.4520   14.1990   29.6260 O.2     2  GLY2       -0.2863
     42 N          24.7260    4.2430   27.2890 N.3     1  THR1       -0.1203
     43 CA         24.3410    4.6080   25.9400 C.3     1  THR1        0.1994
     44 C          24.4580    6.1130   25.7360 C.2     1  THR1        0.2618
     45 O          24.7620    6.8540   26.6710 O.2     1  THR1       -0.2717
     46 CB         22.9500    3.9620   25.5010 C.3     1  THR1        0.1784
     47 OG1        21.9660    4.1540   26.5350 O.3     1  THR1       -0.2211
     48 CG2        23.1370    2.3980   25.2130 C.3     1  THR1        0.0376
     49 N          24.2730    6.5430   24.4920 N.am    2  ARG2       -0.1965
     50 CA         24.4710    7.9350   24.0920 C.3     2  ARG2        0.1729
     51 C          23.3880    8.4860   23.1730 C.2     2  ARG2        0.2616
     52 O          22.6680    7.7310   22.4790 O.2     2  ARG2       -0.2715
     53 CB         25.7950    8.0220   23.3150 C.3     2  ARG2        0.0348
     54 CG         27.0100    7.5740   24.0900 C.3     2  ARG2        0.0492
     55 CD         27.2070    8.5250   25.2150 C.3     2  ARG2        0.2205
     56 NE         28.4900    8.3540   25.8690 N.pl3   2  ARG2       -0.0865
     57 CZ         28.6530    7.6810   27.0060 C.cat   2  ARG2        0.5346
     58 NH2        27.5910    7.1160   27.6010 N.pl3   2  ARG2        0.1354
     59 NH1        29.8650    7.5870   27.5500 N.pl3   2  ARG2        0.1354
     60 N          23.3200    9.8160   23.1320 N.am    3  ALA3       -0.1963
     61 CA         22.4020   10.4850   22.2430 C.3     3  ALA3        0.1728
     62 C          22.8330    9.9730   20.8650 C.2     3  ALA3        0.2617
     63 O          24.0130    9.6320   20.6760 O.2     3  ALA3       -0.2715
     64 CB         22.5980   11.9900   22.3410 C.3     3  ALA3        0.0334
     65 N          21.8940    9.8840   19.9190 N.am    4  GLY4       -0.1940
     66 CA         22.2400    9.4100   18.5850 C.3     4  GLY4        0.2014
     67 C          22.0660    7.9090   18.3720 C.2     4  GLY4        0.2639
     68 O          22.0780    7.3860   17.2080 O.2     4  GLY4       -0.2714
     69 N          21.8940    7.2090   19.4870 N.am    5  GLN5       -0.1963
     70 CA         21.7030    5.7740   19.4410 C.3     5  GLN5        0.1733
     71 C          20.2290    5.3970   19.3830 C.2     5  GLN5        0.2616
     72 O          19.8940    4.2420   19.2100 O.2     5  GLN5       -0.2715
     73 CB         22.3830    5.1310   20.6320 C.3     5  GLN5        0.0408
     74 CG         23.8630    5.4170   20.5440 C.3     5  GLN5        0.0908
     75 CD         24.6420    4.7560   21.6350 C.2     5  GLN5        0.2608
     76 OE1        24.1350    4.5560   22.7020 O.2     5  GLN5       -0.2717
     77 NE2        25.8850    4.4450   21.3720 N.am    5  GLN5       -0.0878
     78 N          19.3500    6.3780   19.4720 N.am    6  CYS6       -0.1968
     79 CA         17.9360    6.0580   19.4390 C.3     6  CYS6        0.1712
     80 C          17.5290    5.4990   18.0770 C.2     6  CYS6        0.2296
     81 O          17.9860    5.9520   17.0420 O.2     6  CYS6       -0.2864
     82 CB         17.1060    7.2650   19.8700 C.3     6  CYS6        0.0983
     83 SG         17.1970    7.5510   21.6780 S.3     6  CYS6       -0.0798
     84 N          15.8140    1.1530   20.7270 N.3     1  HIS1       -0.1226
     85 CA         16.4160    1.9930   21.7670 C.3     1  HIS1        0.1752
     86 C          15.7730    3.3800   21.7600 C.2     1  HIS1        0.2596
     87 O          15.7620    4.0620   20.7320 O.2     1  HIS1       -0.2718
     88 CB         17.9380    2.1590   21.5480 C.3     1  HIS1        0.0759
     89 CG         18.6140    2.9020   22.6700 C.ar    1  HIS1        0.0818
     90 ND1        18.8820    2.3050   23.8880 N.ar    1  HIS1       -0.2268
     91 CD2        19.0300    4.1900   22.7820 C.ar    1  HIS1        0.1154
     92 CE1        19.4260    3.1950   24.7030 C.ar    1  HIS1        0.1986
     93 NE2        19.5260    4.3410   24.0570 N.ar    1  HIS1       -0.2212
     94 N          15.2980    3.8240   22.9160 N.am    2  VAL2       -0.1966
     95 CA         14.6450    5.1270   22.9860 C.3     2  VAL2        0.1727
     96 C          15.1230    6.0600   24.0960 C.2     2  VAL2        0.2617
     97 O          14.7740    7.2430   24.1070 O.2     2  VAL2       -0.2715
     98 CB         13.1460    4.9810   23.1540 C.3     2  VAL2        0.0290
     99 CG1        12.5340    4.2820   21.8960 C.3     2  VAL2        0.0023
    100 CG2        12.8520    4.1040   24.4190 C.3     2  VAL2        0.0023
    101 N          15.9100    5.5590   25.0330 N.am    3  GLY3       -0.1940
    102 CA         16.3600    6.4470   26.0800 C.3     3  GLY3        0.2014
    103 C          17.4310    5.8620   26.9540 C.2     3  GLY3        0.2639
    104 O          17.8900    4.7420   26.8080 O.2     3  GLY3       -0.2714
    105 N          17.8670    6.6770   27.8900 N.am    4  GLY4       -0.1939
    106 CA         18.8800    6.1970   28.7950 C.3     4  GLY4        0.2014
    107 C          19.5320    7.3150   29.5630 C.2     4  GLY4        0.2638
    108 O          19.2430    8.4940   29.3900 O.2     4  GLY4       -0.2714
    109 N          20.3730    6.9000   30.4800 N.am    5  ASN5       -0.1972
    110 CA         21.1700    7.8300   31.2120 C.3     5  ASN5        0.1688
    111 C          22.0220    7.2180   32.2470 C.2     5  ASN5        0.2292
    112 O          21.6620    6.2380   32.9070 O.2     5  ASN5       -0.2864
    113 CB         20.3720    9.0060   31.7210 C.3     5  ASN5        0.1181
    114 CG         20.7360   10.2830   30.9420 C.2     5  ASN5        0.2629
    115 OD1        21.8680   10.4000   30.4050 O.2     5  ASN5       -0.2716
    116 ND2        19.8080   11.2280   30.8680 N.am    5  ASN5       -0.0877
    117 N          17.2480    2.0340   27.6820 N.3     1  PHE1       -0.1241
    118 CA         15.9250    1.4560   27.6230 C.3     1  PHE1        0.1605
    119 C          15.4370    1.3870   26.1960 C.2     1  PHE1        0.2264
    120 O          15.6790    2.3030   25.4360 O.2     1  PHE1       -0.2867
    121 CB         14.9100    2.2950   28.4410 C.3     1  PHE1        0.0534
    122 CG         15.2850    2.4910   29.8920 C.ar    1  PHE1       -0.0203
    123 CD1        16.0940    3.5470   30.2760 C.ar    1  PHE1       -0.0042
    124 CD2        14.8230    1.6040   30.8690 C.ar    1  PHE1       -0.0042
    125 CE1        16.4580    3.7300   31.6330 C.ar    1  PHE1       -0.0003
    126 CE2        15.1670    1.7690   32.2320 C.ar    1  PHE1       -0.0003
    127 CZ         15.9930    2.8420   32.6070 C.ar    1  PHE1       -0.0000
@<TRIPOS>BOND
     1     1     2    1
     2     2     3    1
     3     2     5    1
     4     3     4    2
     5     5     6    1
     6     6     7   ar
     7     6     8   ar
     8     7     9   ar
     9     8    10   ar
    10     9    11   ar
    11    10    11   ar
    12    12    13    1
    13    13    14    1
    14    13    16    1
    15    14    15    2
    16    16    17    1
    17    17    19   ar
    18    17    18   ar
    19    18    20   ar
    20    19    21   ar
    21    20    21   ar
    22    22    23    1
    23    23    26    1
    24    23    24    1
    25    24    25    2
    26    26    27    1
    27    27    29    1
    28    27    28    1
    29    30    31    1
    30    31    34    1
    31    31    32    1
    32    32    33    2
    33    32    38   am
    34    34    35    1
    35    35    37    1
    36    35    36    1
    37    38    39    1
    38    39    40    1
    39    40    41    2
    40    42    43    1
    41    43    46    1
    42    43    44    1
    43    44    49   am
    44    44    45    2
    45    46    48    1
    46    46    47    1
    47    49    50    1
    48    50    51    1
    49    50    53    1
    50    51    52    2
    51    51    60   am
    52    53    54    1
    53    54    55    1
    54    55    56    1
    55    56    57    2
    56    57    59    1
    57    57    58    1
    58    60    61    1
    59    61    62    1
    60    61    64    1
    61    62    65   am
    62    62    63    2
    63    65    66    1
    64    66    67    1
    65    67    68    2
    66    67    69   am
    67    69    70    1
    68    70    71    1
    69    70    73    1
    70    71    72    2
    71    71    78   am
    72    73    74    1
    73    74    75    1
    74    75    77   am
    75    75    76    2
    76    78    79    1
    77    79    80    1
    78    79    82    1
    79    80    81    2
    80    82    83    1
    81    84    85    1
    82    85    88    1
    83    85    86    1
    84    86    87    2
    85    86    94   am
    86    88    89    1
    87    89    91   ar
    88    89    90   ar
    89    90    92   ar
    90    91    93   ar
    91    92    93   ar
    92    94    95    1
    93    95    98    1
    94    95    96    1
    95    96    97    2
    96    96   101   am
    97    98    99    1
    98    98   100    1
    99   101   102    1
   100   102   103    1
   101   103   104    2
   102   103   105   am
   103   105   106    1
   104   106   107    1
   105   107   108    2
   106   107   109   am
   107   109   110    1
   108   110   113    1
   109   110   111    1
   110   111   112    2
   111   113   114    1
   112   114   115    2
   113   114   116   am
   114   117   118    1
   115   118   119    1
   116   118   121    1
   117   119   120    2
   118   121   122    1
   119   122   123   ar
   120   122   124   ar
   121   123   125   ar
   122   124   126   ar
   123   125   127   ar
   124   126   127   ar
