@<TRIPOS>MOLECULE
./1ojz/protein.pdb
 277 270 0 0 0
SMALL
GASTEIGER

@<TRIPOS>ATOM
      1 N           3.1130  -11.1130    1.4650 N.3     1  TYR1       -0.1227
      2 CA          3.4060   -9.9350    2.2650 C.3     1  TYR1        0.1736
      3 C           2.1690   -9.5140    3.0540 C.2     1  TYR1        0.2596
      4 O           2.2500   -9.2310    4.2540 O.2     1  TYR1       -0.2718
      5 CB          3.8730   -8.7720    1.3830 C.3     1  TYR1        0.0548
      6 CG          4.2990   -7.5740    2.1950 C.ar    1  TYR1       -0.0200
      7 CD2         5.5230   -7.5600    2.8620 C.ar    1  TYR1       -0.0009
      8 CD1         3.4490   -6.4890    2.3650 C.ar    1  TYR1       -0.0009
      9 CE2         5.8840   -6.4940    3.6850 C.ar    1  TYR1        0.0417
     10 CE1         3.7970   -5.4230    3.1840 C.ar    1  TYR1        0.0417
     11 CZ          5.0100   -5.4330    3.8420 C.ar    1  TYR1        0.1957
     12 OH          5.3260   -4.3910    4.6790 O.3     1  TYR1       -0.2866
     13 N           1.0260   -9.4750    2.3790 N.am    2  THR2       -0.1939
     14 CA         -0.2220   -9.0880    3.0270 C.3     2  THR2        0.2028
     15 C          -0.6110  -10.0730    4.1310 C.2     2  THR2        0.2642
     16 O          -1.2400   -9.6940    5.1150 O.2     2  THR2       -0.2714
     17 CB         -1.3950   -9.0060    2.0100 C.3     2  THR2        0.1808
     18 OG1        -1.7660  -10.3240    1.5830 O.3     2  THR2       -0.2208
     19 CG2        -0.9850   -8.2000    0.7960 C.3     2  THR2        0.0379
     20 N          -0.2270  -11.3340    3.9660 N.am    3  LYS3       -0.1963
     21 CA         -0.5630  -12.3670    4.9430 C.3     3  LYS3        0.1728
     22 C           0.4010  -12.4680    6.1270 C.2     3  LYS3        0.2616
     23 O          -0.0140  -12.7480    7.2490 O.2     3  LYS3       -0.2715
     24 CB         -0.6200  -13.7350    4.2580 C.3     3  LYS3        0.0311
     25 CG         -1.2130  -14.8310    5.1370 C.3     3  LYS3        0.0038
     26 CD         -0.5680  -16.1920    4.8900 C.3     3  LYS3        0.0206
     27 CE         -0.8990  -16.7630    3.5290 C.3     3  LYS3        0.1093
     28 NZ         -0.3230  -18.1260    3.3910 N.3     3  LYS3       -0.1314
     29 N           1.6840  -12.2340    5.8660 N.am    4  ASN4       -0.1958
     30 CA          2.7160  -12.3580    6.8840 C.3     4  ASN4        0.1819
     31 C           3.8820  -11.4300    6.5420 C.2     4  ASN4        0.2622
     32 O           4.9010  -11.8690    6.0140 O.2     4  ASN4       -0.2715
     33 CB          3.1630  -13.8250    6.9150 C.3     4  ASN4        0.1195
     34 CG          4.3430  -14.0690    7.8250 C.2     4  ASN4        0.2630
     35 OD1         4.4710  -13.4490    8.8780 O.2     4  ASN4       -0.2716
     36 ND2         5.2050  -15.0000    7.4300 N.am    4  ASN4       -0.0877
     37 N           3.7270  -10.1470    6.8560 N.am    5  SER5       -0.1936
     38 CA          4.7470   -9.1480    6.5430 C.3     5  SER5        0.2055
     39 C           5.8000   -8.8670    7.6170 C.2     5  SER5        0.2643
     40 O           6.8340   -8.2580    7.3220 O.2     5  SER5       -0.2714
     41 CB          4.0690   -7.8260    6.1700 C.3     5  SER5        0.2130
     42 OG          3.3540   -7.2890    7.2740 O.3     5  SER5       -0.2179
     43 N           5.5560   -9.2990    8.8500 N.am    6  SER6       -0.1949
     44 CA          6.5100   -9.0360    9.9280 C.3     6  SER6        0.1924
     45 CB          7.9260   -9.5380    9.6550 C.2     6  SER6        0.2314
     46 OG          8.8960   -8.8590    9.9800 O.2     6  SER6       -0.2863
     47 C           6.0030   -9.6050   11.2640 C.3     6  SER6        0.2116
     48 O           6.0900  -11.0150   11.3110 O.3     6  SER6       -0.2180
     49 N           9.2490   -6.4810    7.1430 N.3     1  ASN1       -0.1240
     50 CA          9.3150   -5.0990    7.5980 C.3     1  ASN1        0.1653
     51 C           9.9840   -4.8630    8.9530 C.2     1  ASN1        0.2266
     52 O          10.5620   -3.8030    9.1640 O.2     1  ASN1       -0.2867
     53 CB          7.9160   -4.4550    7.5630 C.3     1  ASN1        0.1155
     54 CG          6.9820   -4.9770    8.6470 C.2     1  ASN1        0.2627
     55 OD1         5.7580   -4.8190    8.5530 O.2     1  ASN1       -0.2716
     56 ND2         7.5430   -5.5770    9.6840 N.am    1  ASN1       -0.0877
     57 N          12.9320   -2.2270    9.3450 N.3     1  ARG1       -0.1245
     58 CA         12.8560   -1.1040   10.2660 C.3     1  ARG1        0.1563
     59 C          14.0190   -1.1090   11.2570 C.2     1  ARG1        0.2260
     60 O          14.5230   -0.0490   11.6330 O.2     1  ARG1       -0.2867
     61 CB         11.5130   -1.1120   11.0000 C.3     1  ARG1        0.0307
     62 CG         10.3820   -0.5490   10.1570 C.3     1  ARG1        0.0489
     63 CD          9.0130   -0.8660   10.7330 C.3     1  ARG1        0.2205
     64 NE          7.9440   -0.3860    9.8600 N.pl3   1  ARG1       -0.0865
     65 CZ          6.7000   -0.8600    9.8690 C.cat   1  ARG1        0.5346
     66 NH2         6.3640   -1.8300   10.7060 N.pl3   1  ARG1        0.1354
     67 NH1         5.7940   -0.3710    9.0330 N.pl3   1  ARG1        0.1354
     68 N          -4.7060    6.5540    2.3350 N.3     1  TYR1       -0.1227
     69 CA         -4.7100    6.6840    3.7820 C.3     1  TYR1        0.1736
     70 C          -4.0380    5.5500    4.5420 C.2     1  TYR1        0.2595
     71 O          -4.3450    4.3780    4.3400 O.2     1  TYR1       -0.2718
     72 CB         -6.1530    6.8490    4.2700 C.3     1  TYR1        0.0548
     73 CG         -6.8460    8.0490    3.6610 C.ar    1  TYR1       -0.0200
     74 CD1        -7.3660    8.0010    2.3660 C.ar    1  TYR1       -0.0009
     75 CD2        -6.9280    9.2490    4.3590 C.ar    1  TYR1       -0.0009
     76 CE1        -7.9490    9.1300    1.7820 C.ar    1  TYR1        0.0417
     77 CE2        -7.5010   10.3750    3.7950 C.ar    1  TYR1        0.0417
     78 CZ         -8.0090   10.3150    2.5060 C.ar    1  TYR1        0.1957
     79 OH         -8.5530   11.4540    1.9490 O.3     1  TYR1       -0.2866
     80 N          -3.1130    5.9230    5.4200 N.am    2  ARG2       -0.1966
     81 CA         -2.4110    4.9570    6.2410 C.3     2  ARG2        0.1729
     82 C          -2.9410    5.1420    7.6690 C.2     2  ARG2        0.2616
     83 O          -2.6080    6.1170    8.3460 O.2     2  ARG2       -0.2715
     84 CB         -0.8920    5.2010    6.1680 C.3     2  ARG2        0.0348
     85 CG         -0.0650    4.0940    6.8270 C.3     2  ARG2        0.0492
     86 CD          1.4470    4.2640    6.6610 C.3     2  ARG2        0.2205
     87 NE          2.1690    3.1810    7.3360 N.pl3   2  ARG2       -0.0865
     88 CZ          3.4110    3.2790    7.8050 C.cat   2  ARG2        0.5346
     89 NH1         4.0920    4.4130    7.6700 N.pl3   2  ARG2        0.1354
     90 NH2         3.9610    2.2530    8.4390 N.pl3   2  ARG2        0.1354
     91 N          -3.8020    4.2260    8.1050 N.am    3  LEU3       -0.1963
     92 CA         -4.3610    4.3030    9.4470 C.3     3  LEU3        0.1728
     93 C          -3.3560    3.7260   10.4340 C.2     3  LEU3        0.2616
     94 O          -2.8450    2.6250   10.2430 O.2     3  LEU3       -0.2715
     95 CB         -5.6980    3.5590    9.5070 C.3     3  LEU3        0.0311
     96 CG         -6.8960    4.3890    9.0250 C.3     3  LEU3        0.0022
     97 CD1        -6.6160    4.9680    7.6380 C.3     3  LEU3        0.0001
     98 CD2        -8.1470    3.5210    8.9930 C.3     3  LEU3        0.0001
     99 N          -3.0660    4.4820   11.4880 N.am    4  LEU4       -0.1963
    100 CA         -2.0760    4.0550   12.4640 C.3     4  LEU4        0.1728
    101 C          -2.5430    4.2040   13.9080 C.2     4  LEU4        0.2616
    102 O          -3.4960    4.9310   14.1960 O.2     4  LEU4       -0.2715
    103 CB         -0.7950    4.8750   12.2600 C.3     4  LEU4        0.0311
    104 CG         -0.1840    4.8310   10.8550 C.3     4  LEU4        0.0022
    105 CD1         0.7160    6.0500   10.6430 C.3     4  LEU4        0.0001
    106 CD2         0.5870    3.5340   10.6730 C.3     4  LEU4        0.0001
    107 N          -1.8530    3.5030   14.8060 N.am    5  ASN5       -0.1972
    108 CA         -2.1360    3.5530   16.2340 C.3     5  ASN5        0.1688
    109 C          -1.2210    4.6280   16.8420 C.2     5  ASN5        0.2292
    110 O          -0.2990    5.1130   16.1810 O.2     5  ASN5       -0.2864
    111 CB         -1.8720    2.1840   16.8780 C.3     5  ASN5        0.1181
    112 CG         -2.8120    1.1020   16.3550 C.2     5  ASN5        0.2629
    113 OD1        -4.0270    1.2710   16.3640 O.2     5  ASN5       -0.2716
    114 ND2        -2.2490   -0.0090   15.8970 N.am    5  ASN5       -0.0877
    115 N           1.1320    4.4180   18.8700 N.3     1  ASP1       -0.1227
    116 CA          2.5270    4.0160   19.0280 C.3     1  ASP1        0.1748
    117 C           3.3990    4.7010   17.9720 C.2     1  ASP1        0.2595
    118 O           4.5880    4.9360   18.1860 O.2     1  ASP1       -0.2718
    119 CB          2.6700    2.4930   18.9060 C.3     1  ASP1        0.0701
    120 CG          2.1140    1.9540   17.6040 C.2     1  ASP1        0.0523
    121 OD2         2.2770    0.7440   17.3380 O.co2   1  ASP1       -0.5491
    122 OD1         1.5100    2.7390   16.8460 O.co2   1  ASP1       -0.5491
    123 N           2.7930    5.0180   16.8330 N.am    2  TYR2       -0.1976
    124 CA          3.4910    5.6790   15.7360 C.3     2  TYR2        0.1639
    125 C           4.1590    6.9620   16.2070 C.2     2  TYR2        0.2290
    126 O           5.2550    7.2970   15.7620 O.2     2  TYR2       -0.2864
    127 CB          2.5020    5.9910   14.6060 C.3     2  TYR2        0.0560
    128 CG          3.0120    6.9520   13.5540 C.ar    2  TYR2       -0.0198
    129 CD1         3.8570    6.5210   12.5300 C.ar    2  TYR2       -0.0009
    130 CD2         2.6400    8.2970   13.5800 C.ar    2  TYR2       -0.0009
    131 CE1         4.3160    7.4110   11.5530 C.ar    2  TYR2        0.0417
    132 CE2         3.0890    9.1900   12.6190 C.ar    2  TYR2        0.0417
    133 CZ          3.9250    8.7480   11.6050 C.ar    2  TYR2        0.1957
    134 OH          4.3590    9.6460   10.6500 O.3     2  TYR2       -0.2866
    135 N           9.4150    6.0720    5.9210 N.3     1  GLU1       -0.1245
    136 CA          8.9730    4.7780    6.4190 C.3     1  GLU1        0.1565
    137 C           9.9530    3.7380    5.8830 C.2     1  GLU1        0.2260
    138 O          10.0230    3.5240    4.6780 O.2     1  GLU1       -0.2867
    139 CB          7.5560    4.4700    5.9150 C.3     1  GLU1        0.0329
    140 CG          7.0730    3.0890    6.3080 C.3     1  GLU1        0.0437
    141 CD          7.2670    2.8280    7.7850 C.2     1  GLU1        0.0504
    142 OE2         6.7190    3.6010    8.6010 O.co2   1  GLU1       -0.5492
    143 OE1         7.9710    1.8530    8.1300 O.co2   1  GLU1       -0.5492
    144 N           9.8900    0.4510    6.3650 N.3     1  GLY1       -0.1210
    145 CA          9.2440   -0.7610    5.9050 C.3     1  GLY1        0.1956
    146 C           8.4250   -0.3600    4.6900 C.2     1  GLY1        0.2612
    147 O           8.5510    0.7570    4.1940 O.2     1  GLY1       -0.2717
    148 N           7.6090   -1.2660    4.1800 N.am    2  TYR2       -0.1962
    149 CA          6.7540   -0.9220    3.0530 C.3     2  TYR2        0.1771
    150 C           5.5940   -0.1780    3.7130 C.2     2  TYR2        0.2620
    151 O           5.3910   -0.3100    4.9250 O.2     2  TYR2       -0.2715
    152 CB          6.2680   -2.1960    2.3560 C.3     2  TYR2        0.0574
    153 CG          7.3720   -2.9280    1.6220 C.ar    2  TYR2       -0.0198
    154 CD1         7.6410   -2.6580    0.2750 C.ar    2  TYR2       -0.0009
    155 CD2         8.1830   -3.8460    2.2870 C.ar    2  TYR2       -0.0009
    156 CE1         8.6990   -3.2890   -0.3910 C.ar    2  TYR2        0.0417
    157 CE2         9.2400   -4.4810    1.6380 C.ar    2  TYR2        0.0417
    158 CZ          9.4910   -4.2000    0.3050 C.ar    2  TYR2        0.1957
    159 OH         10.5180   -4.8390   -0.3400 O.3     2  TYR2       -0.2866
    160 N           4.8530    0.6110    2.9400 N.am    3  SER3       -0.1936
    161 CA          3.7230    1.3540    3.4890 C.3     3  SER3        0.2055
    162 C           2.3920    0.8010    2.9830 C.2     3  SER3        0.2644
    163 O           2.0510    0.9320    1.7980 O.2     3  SER3       -0.2714
    164 CB          3.8190    2.8450    3.1360 C.3     3  SER3        0.2130
    165 OG          4.9020    3.4820    3.8010 O.3     3  SER3       -0.2179
    166 N           1.6410    0.1900    3.8960 N.am    4  SER4       -0.1935
    167 CA          0.3420   -0.3850    3.5780 C.3     4  SER4        0.2055
    168 C          -0.7290    0.6890    3.7660 C.2     4  SER4        0.2644
    169 O          -0.9850    1.1310    4.8880 O.2     4  SER4       -0.2714
    170 CB          0.0640   -1.5660    4.5110 C.3     4  SER4        0.2130
    171 OG         -1.1690   -2.1860    4.1890 O.3     4  SER4       -0.2179
    172 N          -1.3660    1.0920    2.6750 N.am    5  THR5       -0.1936
    173 CA         -2.3840    2.1380    2.7360 C.3     5  THR5        0.2028
    174 C          -3.6990    1.7280    2.0880 C.2     5  THR5        0.2642
    175 O          -3.8090    0.6490    1.5030 O.2     5  THR5       -0.2714
    176 CB         -1.8930    3.4120    2.0250 C.3     5  THR5        0.1808
    177 OG1        -1.7660    3.1490    0.6180 O.3     5  THR5       -0.2208
    178 CG2        -0.5290    3.8550    2.5880 C.3     5  THR5        0.0379
    179 N          -4.6950    2.6050    2.1970 N.am    6  GLN6       -0.1976
    180 CA         -6.0050    2.3540    1.6060 C.3     6  GLN6        0.1601
    181 C          -6.4700    3.5370    0.7550 C.2     6  GLN6        0.2287
    182 O          -6.3080    4.7030    1.1420 O.2     6  GLN6       -0.2864
    183 CB         -7.0330    2.0150    2.7040 C.3     6  GLN6        0.0394
    184 CG         -6.9590    2.8510    3.9670 C.3     6  GLN6        0.0908
    185 CD         -7.7100    2.2220    5.1430 C.2     6  GLN6        0.2608
    186 OE1        -8.9340    2.1020    5.1260 O.2     6  GLN6       -0.2717
    187 NE2        -6.9680    1.8150    6.1690 N.am    6  GLN6       -0.0878
    188 N         -11.7790    1.8550    4.8410 N.3     1  ALA1       -0.1231
    189 CA        -12.0180    0.5590    4.2170 C.3     1  ALA1        0.1694
    190 C         -11.3780   -0.5380    5.0670 C.2     1  ALA1        0.2592
    191 O         -11.6950   -1.7180    4.9120 O.2     1  ALA1       -0.2718
    192 CB        -11.4380    0.5350    2.7990 C.3     1  ALA1        0.0304
    193 N         -10.4830   -0.1390    5.9700 N.am    2  ALA2       -0.1966
    194 CA         -9.7940   -1.0900    6.8370 C.3     2  ALA2        0.1728
    195 C          -9.2930   -0.4590    8.1360 C.2     2  ALA2        0.2616
    196 O          -8.8480    0.6870    8.1500 O.2     2  ALA2       -0.2715
    197 CB         -8.6290   -1.7050    6.0830 C.3     2  ALA2        0.0334
    198 N          -9.3620   -1.2180    9.2280 N.am    3  LEU3       -0.1977
    199 CA         -8.9010   -0.7400   10.5310 C.3     3  LEU3        0.1596
    200 C          -9.4040    0.6790   10.7930 C.2     3  LEU3        0.2287
    201 O          -8.6980    1.4910   11.3880 O.2     3  LEU3       -0.2864
    202 CB         -7.3670   -0.7390   10.5730 C.3     3  LEU3        0.0297
    203 CG         -6.5830   -2.0010   10.1800 C.3     3  LEU3        0.0022
    204 CD1        -6.8250   -2.3410    8.7260 C.3     3  LEU3        0.0001
    205 CD2        -5.1000   -1.7600   10.3930 C.3     3  LEU3        0.0001
    206 N          -8.7340    2.9150   14.0820 N.3     1  ARG1       -0.1245
    207 CA         -7.4590    3.4960   14.5160 C.3     1  ARG1        0.1563
    208 C          -7.4750    5.0190   14.6980 C.2     1  ARG1        0.2260
    209 O          -8.1120    5.7450   13.9370 O.2     1  ARG1       -0.2867
    210 CB         -6.3380    3.0900   13.5560 C.3     1  ARG1        0.0307
    211 CG         -5.9830    1.6100   13.6240 C.3     1  ARG1        0.0489
    212 CD         -4.7870    1.2890   12.7360 C.3     1  ARG1        0.2205
    213 NE         -4.2590   -0.0450   13.0070 N.pl3   1  ARG1       -0.0865
    214 CZ         -3.1810   -0.5630   12.4260 C.cat   1  ARG1        0.5346
    215 NH1        -2.5020    0.1380   11.5270 N.pl3   1  ARG1        0.1354
    216 NH2        -2.7760   -1.7870   12.7500 N.pl3   1  ARG1        0.1354
    217 N          -4.2830  -10.3400   -2.4070 N.3     1  THR1       -0.1218
    218 CA         -4.2980  -10.1270   -0.9660 C.3     1  THR1        0.1862
    219 C          -5.0720  -11.1480   -0.1330 C.2     1  THR1        0.2287
    220 O          -6.1080  -11.6710   -0.5550 O.2     1  THR1       -0.2866
    221 CB         -4.8450   -8.7260   -0.6280 C.3     1  THR1        0.1770
    222 OG1        -4.9260   -8.5860    0.7920 O.3     1  THR1       -0.2211
    223 CG2        -6.2440   -8.5210   -1.2390 C.3     1  THR1        0.0375
    224 N          -6.4080  -10.3080    2.5210 N.3     1  TYR1       -0.1241
    225 CA         -7.4660   -9.5030    3.1320 C.3     1  TYR1        0.1605
    226 C          -8.1780   -8.6150    2.1160 C.2     1  TYR1        0.2264
    227 O          -7.9490   -7.4060    2.0560 O.2     1  TYR1       -0.2867
    228 CB         -6.8860   -8.6400    4.2580 C.3     1  TYR1        0.0534
    229 CG         -6.1810   -9.4550    5.3180 C.ar    1  TYR1       -0.0201
    230 CD1        -4.8470   -9.8350    5.1620 C.ar    1  TYR1       -0.0009
    231 CD2        -6.8700   -9.9150    6.4400 C.ar    1  TYR1       -0.0009
    232 CE1        -4.2160  -10.6600    6.0990 C.ar    1  TYR1        0.0417
    233 CE2        -6.2530  -10.7400    7.3790 C.ar    1  TYR1        0.0417
    234 CZ         -4.9240  -11.1110    7.2010 C.ar    1  TYR1        0.1957
    235 OH         -4.3140  -11.9360    8.1240 O.3     1  TYR1       -0.2866
    236 N          -9.8700   -4.0860    1.5620 N.3     1  GLN1       -0.1231
    237 CA         -9.1970   -2.9820    2.2480 C.3     1  GLN1        0.1698
    238 C          -8.7170   -1.9160    1.2580 C.2     1  GLN1        0.2592
    239 O          -8.0390   -0.9690    1.6480 O.2     1  GLN1       -0.2718
    240 CB         -8.0060   -3.5010    3.0660 C.3     1  GLN1        0.0381
    241 CG         -8.3720   -4.5850    4.0680 C.3     1  GLN1        0.0905
    242 CD         -7.1750   -5.0990    4.8460 C.2     1  GLN1        0.2608
    243 OE1        -6.1220   -5.3680    4.2690 O.2     1  GLN1       -0.2717
    244 NE2        -7.3350   -5.2550    6.1600 N.am    1  GLN1       -0.0878
    245 N          -9.0760   -2.0730   -0.0150 N.am    2  GLN2       -0.1966
    246 CA         -8.6740   -1.1250   -1.0570 C.3     2  GLN2        0.1733
    247 C          -7.2070   -0.7470   -0.8680 C.2     2  GLN2        0.2616
    248 O          -6.8180    0.4110   -1.0380 O.2     2  GLN2       -0.2715
    249 CB         -9.5460    0.1350   -0.9800 C.3     2  GLN2        0.0408
    250 CG        -11.0250   -0.1060   -1.2950 C.3     2  GLN2        0.0908
    251 CD        -11.2950   -0.2630   -2.7870 C.2     2  GLN2        0.2608
    252 OE1       -12.4060   -0.6120   -3.1970 O.2     2  GLN2       -0.2717
    253 NE2       -10.2890    0.0040   -3.6020 N.am    2  GLN2       -0.0878
    254 N          -6.3920   -1.7360   -0.5250 N.am    3  GLU3       -0.1963
    255 CA         -4.9890   -1.4850   -0.2570 C.3     3  GLU3        0.1731
    256 C          -4.1150   -1.0300   -1.4150 C.2     3  GLU3        0.2616
    257 O          -4.1880   -1.5380   -2.5360 O.2     3  GLU3       -0.2715
    258 CB         -4.3450   -2.7140    0.4060 C.3     3  GLU3        0.0370
    259 CG         -2.8400   -2.5510    0.6470 C.3     3  GLU3        0.0440
    260 CD         -2.2940   -3.5450    1.6480 C.2     3  GLU3        0.0504
    261 OE2        -3.0490   -4.4550    2.0490 O.co2   3  GLU3       -0.5492
    262 OE1        -1.1110   -3.4210    2.0310 O.co2   3  GLU3       -0.5492
    263 N          -3.2920   -0.0340   -1.1240 N.am    4  VAL4       -0.1963
    264 CA         -2.3350    0.4830   -2.0830 C.3     4  VAL4        0.1727
    265 C          -1.0230    0.3460   -1.3330 C.2     4  VAL4        0.2616
    266 O          -0.8300    0.9530   -0.2770 O.2     4  VAL4       -0.2715
    267 CB         -2.5990    1.9580   -2.4420 C.3     4  VAL4        0.0290
    268 CG1        -1.4300    2.5030   -3.2610 C.3     4  VAL4        0.0023
    269 CG2        -3.8840    2.0700   -3.2600 C.3     4  VAL4        0.0023
    270 N          -0.1420   -0.4890   -1.8640 N.am    5  LEU5       -0.1977
    271 CA          1.1350   -0.7340   -1.2220 C.3     5  LEU5        0.1596
    272 C           2.2160    0.1570   -1.8130 C.2     5  LEU5        0.2287
    273 O           2.4840    0.1190   -3.0220 O.2     5  LEU5       -0.2864
    274 CB          1.5050   -2.2140   -1.3740 C.3     5  LEU5        0.0297
    275 CG          2.7290   -2.7400   -0.6190 C.3     5  LEU5        0.0022
    276 CD2         2.4890   -2.6870    0.8990 C.3     5  LEU5        0.0001
    277 CD1         2.9980   -4.1660   -1.0550 C.3     5  LEU5        0.0001
@<TRIPOS>UNITY_ATOM_ATTR
121 1
charge -1
142 1
charge -1
261 1
charge -1
@<TRIPOS>BOND
     1     1     2    1
     2     2     5    1
     3     2     3    1
     4     3    13   am
     5     3     4    2
     6     5     6    1
     7     6     8   ar
     8     6     7   ar
     9     7     9   ar
    10     8    10   ar
    11     9    11   ar
    12    10    11   ar
    13    11    12    1
    14    13    14    1
    15    14    17    1
    16    14    15    1
    17    15    20   am
    18    15    16    2
    19    17    19    1
    20    17    18    1
    21    20    21    1
    22    21    24    1
    23    21    22    1
    24    22    29   am
    25    22    23    2
    26    24    25    1
    27    25    26    1
    28    26    27    1
    29    27    28    1
    30    29    30    1
    31    30    31    1
    32    30    33    1
    33    31    32    2
    34    31    37   am
    35    33    34    1
    36    34    36   am
    37    34    35    2
    38    37    38    1
    39    38    41    1
    40    38    39    1
    41    39    40    2
    42    39    43   am
    43    41    42    1
    44    43    44    1
    45    44    45    1
    46    44    47    1
    47    45    46    2
    48    47    48    1
    49    49    50    1
    50    50    53    1
    51    50    51    1
    52    51    52    2
    53    53    54    1
    54    54    55    2
    55    54    56   am
    56    57    58    1
    57    58    61    1
    58    58    59    1
    59    59    60    2
    60    61    62    1
    61    62    63    1
    62    63    64    1
    63    64    65    2
    64    65    67    1
    65    65    66    1
    66    68    69    1
    67    69    72    1
    68    69    70    1
    69    70    71    2
    70    70    80   am
    71    72    73    1
    72    73    74   ar
    73    73    75   ar
    74    74    76   ar
    75    75    77   ar
    76    76    78   ar
    77    77    78   ar
    78    78    79    1
    79    80    81    1
    80    81    84    1
    81    81    82    1
    82    82    91   am
    83    82    83    2
    84    84    85    1
    85    85    86    1
    86    86    87    1
    87    87    88    2
    88    88    89    1
    89    88    90    1
    90    91    92    1
    91    92    95    1
    92    92    93    1
    93    93    94    2
    94    93    99   am
    95    95    96    1
    96    96    97    1
    97    96    98    1
    98    99   100    1
    99   100   103    1
   100   100   101    1
   101   101   102    2
   102   101   107   am
   103   103   104    1
   104   104   105    1
   105   104   106    1
   106   107   108    1
   107   108   109    1
   108   108   111    1
   109   109   110    2
   110   111   112    1
   111   112   114   am
   112   112   113    2
   113   115   116    1
   114   116   117    1
   115   116   119    1
   116   117   123   am
   117   117   118    2
   118   119   120    1
   119   120   122   ar
   120   120   121   ar
   121   123   124    1
   122   124   127    1
   123   124   125    1
   124   125   126    2
   125   127   128    1
   126   128   129   ar
   127   128   130   ar
   128   129   131   ar
   129   130   132   ar
   130   131   133   ar
   131   132   133   ar
   132   133   134    1
   133   135   136    1
   134   136   137    1
   135   136   139    1
   136   137   138    2
   137   139   140    1
   138   140   141    1
   139   141   143   ar
   140   141   142   ar
   141   144   145    1
   142   145   146    1
   143   146   148   am
   144   146   147    2
   145   148   149    1
   146   149   152    1
   147   149   150    1
   148   150   160   am
   149   150   151    2
   150   152   153    1
   151   153   154   ar
   152   153   155   ar
   153   154   156   ar
   154   155   157   ar
   155   156   158   ar
   156   157   158   ar
   157   158   159    1
   158   160   161    1
   159   161   162    1
   160   161   164    1
   161   162   163    2
   162   162   166   am
   163   164   165    1
   164   166   167    1
   165   167   168    1
   166   167   170    1
   167   168   172   am
   168   168   169    2
   169   170   171    1
   170   172   173    1
   171   173   176    1
   172   173   174    1
   173   174   175    2
   174   174   179   am
   175   176   177    1
   176   176   178    1
   177   179   180    1
   178   180   181    1
   179   180   183    1
   180   181   182    2
   181   183   184    1
   182   184   185    1
   183   185   186    2
   184   185   187   am
   185   188   189    1
   186   189   192    1
   187   189   190    1
   188   190   191    2
   189   190   193   am
   190   193   194    1
   191   194   197    1
   192   194   195    1
   193   195   196    2
   194   195   198   am
   195   198   199    1
   196   199   202    1
   197   199   200    1
   198   200   201    2
   199   202   203    1
   200   203   204    1
   201   203   205    1
   202   206   207    1
   203   207   210    1
   204   207   208    1
   205   208   209    2
   206   210   211    1
   207   211   212    1
   208   212   213    1
   209   213   214    2
   210   214   215    1
   211   214   216    1
   212   217   218    1
   213   218   221    1
   214   218   219    1
   215   219   220    2
   216   221   223    1
   217   221   222    1
   218   224   225    1
   219   225   226    1
   220   225   228    1
   221   226   227    2
   222   228   229    1
   223   229   230   ar
   224   229   231   ar
   225   230   232   ar
   226   231   233   ar
   227   232   234   ar
   228   233   234   ar
   229   234   235    1
   230   236   237    1
   231   237   238    1
   232   237   240    1
   233   238   245   am
   234   238   239    2
   235   240   241    1
   236   241   242    1
   237   242   243    2
   238   242   244   am
   239   245   246    1
   240   246   249    1
   241   246   247    1
   242   247   248    2
   243   247   254   am
   244   249   250    1
   245   250   251    1
   246   251   253   am
   247   251   252    2
   248   254   255    1
   249   255   256    1
   250   255   258    1
   251   256   257    2
   252   256   263   am
   253   258   259    1
   254   259   260    1
   255   260   262   ar
   256   260   261   ar
   257   263   264    1
   258   264   267    1
   259   264   265    1
   260   265   270   am
   261   265   266    2
   262   267   268    1
   263   267   269    1
   264   270   271    1
   265   271   272    1
   266   271   274    1
   267   272   273    2
   268   274   275    1
   269   275   277    1
   270   275   276    1
