@<TRIPOS>MOLECULE
./1v0y/protein.pdb
 208 203 0 0 0
SMALL
GASTEIGER

@<TRIPOS>ATOM
      1 N          17.0280   34.0420   10.2620 N.3     1  LEU1       -0.1231
      2 CA         17.0560   33.2430    9.0350 C.3     1  LEU1        0.1693
      3 C          16.9550   34.2420    7.8540 C.2     1  LEU1        0.2591
      4 O          16.1360   35.1870    7.8670 O.2     1  LEU1       -0.2718
      5 CB         15.8270   32.3430    9.0350 C.3     1  LEU1        0.0284
      6 CG         15.7390   31.4640    7.8080 C.3     1  LEU1        0.0019
      7 CD1        16.8950   30.4460    7.7190 C.3     1  LEU1        0.0001
      8 CD2        14.4020   30.8120    7.7430 C.3     1  LEU1        0.0001
      9 N          17.7980   34.0420    6.8570 N.am    2  ALA2       -0.1980
     10 CA         17.8450   34.9740    5.7080 C.3     2  ALA2        0.1597
     11 C          16.4810   34.9310    4.9980 C.2     2  ALA2        0.2287
     12 O          15.8070   33.8970    4.9870 O.2     2  ALA2       -0.2864
     13 CB         18.9420   34.5050    4.7700 C.3     2  ALA2        0.0319
     14 N          21.3590   19.9530    5.2780 N.3     1  PHE1       -0.1241
     15 CA         20.4820   21.1140    5.2160 C.3     1  PHE1        0.1605
     16 C          20.5130   21.8630    6.5690 C.2     1  PHE1        0.2264
     17 O          19.4570   22.1600    7.1710 O.2     1  PHE1       -0.2867
     18 CB         19.0370   20.7500    4.8150 C.3     1  PHE1        0.0534
     19 CG         18.9370   19.9980    3.4690 C.ar    1  PHE1       -0.0203
     20 CD2        19.0870   18.6250    3.4150 C.ar    1  PHE1       -0.0042
     21 CD1        18.7510   20.6880    2.2880 C.ar    1  PHE1       -0.0042
     22 CE2        19.0530   17.9430    2.2040 C.ar    1  PHE1       -0.0003
     23 CE1        18.6830   19.9970    1.0440 C.ar    1  PHE1       -0.0003
     24 CZ         18.8290   18.6220    1.0210 C.ar    1  PHE1       -0.0000
     25 N          21.7900   25.2000    8.7960 N.3     1  TRP1       -0.1241
     26 CA         22.2780   26.5670    8.8690 C.3     1  TRP1        0.1602
     27 C          21.5470   27.2940   10.0200 C.2     1  TRP1        0.2264
     28 O          20.5860   26.7570   10.6080 O.2     1  TRP1       -0.2867
     29 CB         22.0170   27.2880    7.5140 C.3     1  TRP1        0.0510
     30 CG         20.6390   27.0680    7.0530 C.2     1  TRP1       -0.0168
     31 CD1        19.5090   27.6360    7.5780 C.3     1  TRP1        0.1477
     32 CD2        20.1910   26.1830    6.0120 C.ar    1  TRP1        0.0113
     33 NE1        18.3900   27.1930    6.9140 N.2     1  TRP1       -0.2659
     34 CE2        18.7750   26.2870    5.9510 C.ar    1  TRP1        0.0758
     35 CE3        20.8420   25.3270    5.1170 C.ar    1  TRP1        0.0009
     36 CZ2        17.9960   25.5660    5.0290 C.ar    1  TRP1        0.0187
     37 CZ3        20.0690   24.5900    4.1880 C.ar    1  TRP1        0.0001
     38 CH2        18.6620   24.7280    4.1450 C.ar    1  TRP1        0.0015
     39 N          18.8470   29.0790   12.2200 N.3     1  HIS1       -0.1241
     40 CA         17.4290   29.2670   12.1920 C.3     1  HIS1        0.1621
     41 C          17.0350   29.9710   13.4900 C.2     1  HIS1        0.2264
     42 O          15.9140   30.4500   13.5730 O.2     1  HIS1       -0.2867
     43 CB         16.6960   27.9410   11.8830 C.3     1  HIS1        0.0745
     44 CG         15.1950   27.9920   11.9470 C.ar    1  HIS1        0.0817
     45 ND1        14.4360   27.6820   13.0400 N.ar    1  HIS1       -0.2268
     46 CD2        14.2440   28.2270   11.1650 C.ar    1  HIS1        0.1154
     47 CE1        13.0020   27.8110   12.7310 C.ar    1  HIS1        0.1986
     48 NE2        13.0390   28.2540   11.3380 N.ar    1  HIS1       -0.2212
     49 N          16.4720   32.9950   16.0700 N.3     1  LYS1       -0.1245
     50 CA         16.0220   34.3950   15.8650 C.3     1  LYS1        0.1561
     51 C          16.1510   35.0810   17.2420 C.2     1  LYS1        0.2260
     52 O          15.2920   34.8930   18.1360 O.2     1  LYS1       -0.2867
     53 CB         14.5740   34.4330   15.3470 C.3     1  LYS1        0.0271
     54 CG         14.3480   33.5340   14.0650 C.3     1  LYS1        0.0035
     55 CD         13.0250   32.8770   14.0750 C.3     1  LYS1        0.0206
     56 CE         12.8710   31.6590   13.1550 C.3     1  LYS1        0.1093
     57 NZ         13.7510   31.5890   11.9940 N.3     1  LYS1       -0.1314
     58 N          10.7550   35.7100   11.9970 N.3     1  ASN1       -0.1240
     59 CA         11.7540   36.1520   10.9950 C.3     1  ASN1        0.1653
     60 C          11.4110   37.6020   10.6760 C.2     1  ASN1        0.2266
     61 O          10.2570   37.9840   10.7560 O.2     1  ASN1       -0.2867
     62 CB         11.6790   35.2440    9.7370 C.3     1  ASN1        0.1155
     63 CG         12.1650   33.8350   10.0240 C.2     1  ASN1        0.2627
     64 OD1        13.2400   33.6830   10.6050 O.2     1  ASN1       -0.2716
     65 ND2        11.4100   32.8060    9.5990 N.am    1  ASN1       -0.0877
     66 N          10.8520   39.5270    8.2380 N.3     1  TRP1       -0.1241
     67 CA         10.4630   39.4830    6.8260 C.3     1  TRP1        0.1602
     68 C           9.1980   40.3310    6.6310 C.2     1  TRP1        0.2264
     69 O           8.1260   39.9340    7.0380 O.2     1  TRP1       -0.2867
     70 CB         10.1850   38.0190    6.3540 C.3     1  TRP1        0.0510
     71 CG         11.3430   37.0360    6.4100 C.2     1  TRP1       -0.0168
     72 CD1        12.6420   37.2870    6.6490 C.3     1  TRP1        0.1477
     73 CD2        11.2330   35.6030    6.2800 C.ar    1  TRP1        0.0113
     74 NE1        13.3710   36.1170    6.6300 N.2     1  TRP1       -0.2659
     75 CE2        12.5180   35.0660    6.4580 C.ar    1  TRP1        0.0758
     76 CE3        10.1760   34.7450    6.1110 C.ar    1  TRP1        0.0009
     77 CZ2        12.7860   33.7020    6.3720 C.ar    1  TRP1        0.0187
     78 CZ3        10.4240   33.3780    6.0220 C.ar    1  TRP1        0.0001
     79 CH2        11.7360   32.8700    6.1710 C.ar    1  TRP1        0.0015
     80 N           5.8960   38.8400    4.7260 N.3     1  ASP1       -0.1241
     81 CA          5.1310   37.8250    5.3870 C.3     1  ASP1        0.1616
     82 C           4.4160   38.3350    6.6760 C.2     1  ASP1        0.2264
     83 O           3.3370   37.8640    7.0020 O.2     1  ASP1       -0.2867
     84 CB          6.0420   36.6290    5.7410 C.3     1  ASP1        0.0687
     85 CG          6.3090   35.6840    4.5560 C.2     1  ASP1        0.0522
     86 OD1         5.9430   35.9540    3.3800 O.co2   1  ASP1       -0.5491
     87 OD2         6.8750   34.5830    4.7050 O.co2   1  ASP1       -0.5491
     88 N           3.8430   25.5570   13.4110 N.3     1  GLN1       -0.1245
     89 CA          3.5290   25.4920   11.9930 C.3     1  GLN1        0.1566
     90 C           3.1160   24.0940   11.6430 C.2     1  GLN1        0.2260
     91 O           2.1030   23.8980   10.9520 O.2     1  GLN1       -0.2867
     92 CB          4.7230   25.9440   11.1420 C.3     1  GLN1        0.0367
     93 CG          4.3760   26.0490    9.6990 C.3     1  GLN1        0.0905
     94 CD          5.6240   26.2540    8.8350 C.2     1  GLN1        0.2608
     95 OE1         6.2520   27.2770    8.9040 O.2     1  GLN1       -0.2717
     96 NE2         5.9820   25.2410    8.0500 N.am    1  GLN1       -0.0878
     97 N           7.3980   16.8290    9.1070 N.3     1  ALA1       -0.1245
     98 CA          8.2710   17.4220    8.1030 C.3     1  ALA1        0.1562
     99 C           8.0390   16.7880    6.7250 C.2     1  ALA1        0.2260
    100 O           7.4870   15.7120    6.5910 O.2     1  ALA1       -0.2867
    101 CB          9.7130   17.2270    8.4630 C.3     1  ALA1        0.0290
    102 N          13.9570   15.0870    5.1430 N.3     1  LEU1       -0.1245
    103 CA         13.8290   14.8680    6.5680 C.3     1  LEU1        0.1561
    104 C          12.9070   13.6970    6.7960 C.2     1  LEU1        0.2260
    105 O          11.9960   13.4600    5.9790 O.2     1  LEU1       -0.2867
    106 CB         13.1750   16.0710    7.2330 C.3     1  LEU1        0.0270
    107 CG         14.0460   17.2720    7.6220 C.3     1  LEU1        0.0019
    108 CD2        15.1820   16.9560    8.5490 C.3     1  LEU1        0.0001
    109 CD1        14.5740   18.0080    6.3830 C.3     1  LEU1        0.0001
    110 N           4.8710   26.9140    1.6350 N.3     1  GLY1       -0.1210
    111 CA          5.5790   27.5710    2.7120 C.3     1  GLY1        0.1956
    112 C           5.1310   27.0920    4.1020 C.2     1  GLY1        0.2611
    113 O           5.8330   26.3440    4.7790 O.2     1  GLY1       -0.2717
    114 N           3.9580   27.5230    4.5280 N.am    2  TYR2       -0.1976
    115 CA          3.5730   27.4270    5.9390 C.3     2  TYR2        0.1639
    116 C           2.7270   26.2090    6.3270 C.2     2  TYR2        0.2290
    117 O           1.9340   26.2780    7.2600 O.2     2  TYR2       -0.2864
    118 CB          2.9250   28.7390    6.3770 C.3     2  TYR2        0.0560
    119 CG          3.8890   29.8940    6.4430 C.ar    2  TYR2       -0.0198
    120 CD1         4.0530   30.7800    5.3740 C.ar    2  TYR2       -0.0009
    121 CD2         4.6400   30.1160    7.5810 C.ar    2  TYR2       -0.0009
    122 CE1         4.9440   31.8110    5.4480 C.ar    2  TYR2        0.0417
    123 CE2         5.5270   31.1230    7.6670 C.ar    2  TYR2        0.0417
    124 CZ          5.6990   31.9870    6.6130 C.ar    2  TYR2        0.1957
    125 OH          6.5840   33.0350    6.7620 O.3     2  TYR2       -0.2866
    126 N           3.2360   21.5200    5.9820 N.3     1  GLN1       -0.1245
    127 CA          3.8990   20.3590    5.4080 C.3     1  GLN1        0.1566
    128 C           3.0540   19.1000    5.4630 C.2     1  GLN1        0.2260
    129 O           3.5810   17.9870    5.3020 O.2     1  GLN1       -0.2867
    130 CB          5.2530   20.1150    6.1140 C.3     1  GLN1        0.0367
    131 CG          6.2330   21.3050    5.9870 C.3     1  GLN1        0.0905
    132 CD          7.4620   21.1130    6.8200 C.2     1  GLN1        0.2608
    133 OE1         8.4500   20.5690    6.3480 O.2     1  GLN1       -0.2717
    134 NE2         7.4150   21.5580    8.0610 N.am    1  GLN1       -0.0878
    135 N           3.1480   30.2290   12.6810 N.3     1  HIS1       -0.1241
    136 CA          4.6030   29.9340   12.6400 C.3     1  HIS1        0.1621
    137 C           5.2120   29.8750   14.0590 C.2     1  HIS1        0.2264
    138 O           6.4340   29.7720   14.1730 O.2     1  HIS1       -0.2867
    139 CB          5.2790   30.9540   11.7560 C.3     1  HIS1        0.0745
    140 CG          6.7300   30.7020   11.4310 C.ar    1  HIS1        0.0817
    141 ND1         7.7490   31.3600   12.0820 N.ar    1  HIS1       -0.2268
    142 CD2         7.3160   29.9850   10.4420 C.ar    1  HIS1        0.1154
    143 CE1         8.9100   31.0070   11.5470 C.ar    1  HIS1        0.1986
    144 NE2         8.6750   30.1870   10.5300 N.ar    1  HIS1       -0.2212
    145 N           6.5750   28.5270   17.6120 N.3     1  LYS1       -0.1245
    146 CA          7.2260   27.3150   18.1500 C.3     1  LYS1        0.1561
    147 C           7.0390   27.3440   19.6580 C.2     1  LYS1        0.2260
    148 O           7.9210   27.8030   20.4440 O.2     1  LYS1       -0.2867
    149 CB          8.7000   27.2730   17.7970 C.3     1  LYS1        0.0271
    150 CG          9.0610   27.3170   16.3270 C.3     1  LYS1        0.0035
    151 CD          9.1100   28.7720   15.7850 C.3     1  LYS1        0.0206
    152 CE          9.6730   28.7740   14.3480 C.3     1  LYS1        0.1093
    153 NZ          8.7540   28.2010   13.3300 N.3     1  LYS1       -0.1314
    154 N          11.4090   24.1980   15.8990 N.3     1  ASN1       -0.1240
    155 CA         10.1970   23.5120   15.4900 C.3     1  ASN1        0.1653
    156 C          10.1250   22.1160   16.0620 C.2     1  ASN1        0.2266
    157 O          11.1560   21.5110   16.2910 O.2     1  ASN1       -0.2867
    158 CB         10.1660   23.3940   13.9940 C.3     1  ASN1        0.1155
    159 CG          9.9810   24.7570   13.3290 C.2     1  ASN1        0.2627
    160 OD1         8.9310   25.3290   13.4560 O.2     1  ASN1       -0.2716
    161 ND2        11.0040   25.2500   12.6250 N.am    1  ASN1       -0.0877
    162 N           8.7320   19.6830   14.3740 N.3     1  TYR1       -0.1228
    163 CA          8.9390   18.7940   13.2180 C.3     1  TYR1        0.1721
    164 C          10.4220   18.5650   12.9990 C.2     1  TYR1        0.2437
    165 O          11.1960   19.4360   13.3820 O.2     1  TYR1       -0.2733
    166 CB          8.2370   19.3460   11.9670 C.3     1  TYR1        0.0547
    167 CG          8.7000   20.6880   11.3720 C.ar    1  TYR1       -0.0200
    168 CD1         9.8490   20.7920   10.5640 C.ar    1  TYR1       -0.0009
    169 CD2         7.9900   21.8420   11.6150 C.ar    1  TYR1       -0.0009
    170 CE1        10.2260   22.0410    9.9870 C.ar    1  TYR1        0.0417
    171 CE2         8.3460   23.0700   11.0240 C.ar    1  TYR1        0.0417
    172 CZ          9.4760   23.1550   10.2510 C.ar    1  TYR1        0.1957
    173 OH          9.7990   24.3600    9.6430 O.3     1  TYR1       -0.2866
    174 N          10.8430   17.4120   12.4570 N.am    2  PRO2       -0.2718
    175 CA         12.2510   17.1490   12.2300 C.3     2  PRO2        0.1535
    176 C          12.9480   18.2490   11.4560 C.2     2  PRO2        0.2599
    177 O          12.4520   18.7270   10.4540 O.2     2  PRO2       -0.2715
    178 CB         12.2530   15.7670   11.5050 C.3     2  PRO2        0.0310
    179 CG         11.0100   15.1070   12.0310 C.3     2  PRO2        0.0237
    180 CD         10.0220   16.2300   12.0890 C.3     2  PRO2        0.0939
    181 N          14.0830   18.6740   12.0130 N.am    3  SER3       -0.1936
    182 CA         14.8260   19.8290   11.5690 C.3     3  SER3        0.2055
    183 C          16.2140   19.7320   12.2070 C.2     3  SER3        0.2643
    184 O          16.3310   19.4750   13.4140 O.2     3  SER3       -0.2714
    185 CB         14.1200   21.1680   11.9380 C.3     3  SER3        0.2130
    186 OG         13.5460   21.1940   13.3010 O.3     3  SER3       -0.2179
    187 N          17.2580   19.9330   11.3890 N.am    4  TRP4       -0.1959
    188 CA         18.6510   19.7820   11.8050 C.3     4  TRP4        0.1768
    189 C          19.4370   21.0700   11.7420 C.2     4  TRP4        0.2619
    190 O          20.5170   21.1090   11.2280 O.2     4  TRP4       -0.2715
    191 CB         19.3230   18.7240   10.9360 C.3     4  TRP4        0.0551
    192 CG         18.5650   17.4060   10.9790 C.2     4  TRP4       -0.0165
    193 CD1        17.7660   16.9330   11.9960 C.3     4  TRP4        0.1477
    194 CD2        18.5020   16.4440    9.9320 C.ar    4  TRP4        0.0113
    195 NE1        17.2060   15.7260   11.6240 N.2     4  TRP4       -0.2659
    196 CE2        17.6640   15.3950   10.3690 C.ar    4  TRP4        0.0758
    197 CE3        19.0930   16.3560    8.6640 C.ar    4  TRP4        0.0009
    198 CZ2        17.4070   14.2330    9.5570 C.ar    4  TRP4        0.0187
    199 CZ3        18.8370   15.2350    7.8670 C.ar    4  TRP4        0.0001
    200 CH2        18.0000   14.1910    8.3400 C.ar    4  TRP4        0.0015
    201 N          18.8690   22.1330   12.3020 N.am    5  LEU5       -0.1977
    202 CA         19.3610   23.5010   12.1800 C.3     5  LEU5        0.1596
    203 C          19.9530   23.9940   13.5020 C.2     5  LEU5        0.2287
    204 O          19.7590   23.3490   14.5670 O.2     5  LEU5       -0.2864
    205 CB         18.1580   24.4200   11.8280 C.3     5  LEU5        0.0297
    206 CG         17.2990   23.9970   10.6150 C.3     5  LEU5        0.0022
    207 CD2        16.0230   24.8650   10.3990 C.3     5  LEU5        0.0001
    208 CD1        18.1040   24.0440    9.3580 C.3     5  LEU5        0.0001
@<TRIPOS>UNITY_ATOM_ATTR
86 1
charge -1
@<TRIPOS>BOND
     1     1     2    1
     2     2     3    1
     3     2     5    1
     4     3     9   am
     5     3     4    2
     6     5     6    1
     7     6     7    1
     8     6     8    1
     9     9    10    1
    10    10    13    1
    11    10    11    1
    12    11    12    2
    13    14    15    1
    14    15    18    1
    15    15    16    1
    16    16    17    2
    17    18    19    1
    18    19    21   ar
    19    19    20   ar
    20    20    22   ar
    21    21    23   ar
    22    22    24   ar
    23    23    24   ar
    24    25    26    1
    25    26    29    1
    26    26    27    1
    27    27    28    2
    28    29    30    1
    29    30    32    2
    30    30    31    1
    31    31    33    1
    32    32    35   ar
    33    32    34   ar
    34    33    34    2
    35    34    36   ar
    36    35    37   ar
    37    36    38   ar
    38    37    38   ar
    39    39    40    1
    40    40    43    1
    41    40    41    1
    42    41    42    2
    43    43    44    1
    44    44    46   ar
    45    44    45   ar
    46    45    47   ar
    47    46    48   ar
    48    47    48   ar
    49    49    50    1
    50    50    53    1
    51    50    51    1
    52    51    52    2
    53    53    54    1
    54    54    55    1
    55    55    56    1
    56    56    57    1
    57    58    59    1
    58    59    62    1
    59    59    60    1
    60    60    61    2
    61    62    63    1
    62    63    65   am
    63    63    64    2
    64    66    67    1
    65    67    70    1
    66    67    68    1
    67    68    69    2
    68    70    71    1
    69    71    73    2
    70    71    72    1
    71    72    74    1
    72    73    76   ar
    73    73    75   ar
    74    74    75    2
    75    75    77   ar
    76    76    78   ar
    77    77    79   ar
    78    78    79   ar
    79    80    81    1
    80    81    84    1
    81    81    82    1
    82    82    83    2
    83    84    85    1
    84    85    86   ar
    85    85    87   ar
    86    88    89    1
    87    89    92    1
    88    89    90    1
    89    90    91    2
    90    92    93    1
    91    93    94    1
    92    94    96   am
    93    94    95    2
    94    97    98    1
    95    98    99    1
    96    98   101    1
    97    99   100    2
    98   102   103    1
    99   103   104    1
   100   103   106    1
   101   104   105    2
   102   106   107    1
   103   107   109    1
   104   107   108    1
   105   110   111    1
   106   111   112    1
   107   112   114   am
   108   112   113    2
   109   114   115    1
   110   115   116    1
   111   115   118    1
   112   116   117    2
   113   118   119    1
   114   119   120   ar
   115   119   121   ar
   116   120   122   ar
   117   121   123   ar
   118   122   124   ar
   119   123   124   ar
   120   124   125    1
   121   126   127    1
   122   127   128    1
   123   127   130    1
   124   128   129    2
   125   130   131    1
   126   131   132    1
   127   132   133    2
   128   132   134   am
   129   135   136    1
   130   136   139    1
   131   136   137    1
   132   137   138    2
   133   139   140    1
   134   140   142   ar
   135   140   141   ar
   136   141   143   ar
   137   142   144   ar
   138   143   144   ar
   139   145   146    1
   140   146   149    1
   141   146   147    1
   142   147   148    2
   143   149   150    1
   144   150   151    1
   145   151   152    1
   146   152   153    1
   147   154   155    1
   148   155   158    1
   149   155   156    1
   150   156   157    2
   151   158   159    1
   152   159   161   am
   153   159   160    2
   154   162   163    1
   155   163   166    1
   156   163   164    1
   157   164   174   am
   158   164   165    2
   159   166   167    1
   160   167   168   ar
   161   167   169   ar
   162   168   170   ar
   163   169   171   ar
   164   170   172   ar
   165   171   172   ar
   166   172   173    1
   167   174   180    1
   168   174   175    1
   169   175   176    1
   170   175   178    1
   171   176   177    2
   172   176   181   am
   173   178   179    1
   174   179   180    1
   175   181   182    1
   176   182   185    1
   177   182   183    1
   178   183   187   am
   179   183   184    2
   180   185   186    1
   181   187   188    1
   182   188   191    1
   183   188   189    1
   184   189   190    2
   185   189   201   am
   186   191   192    1
   187   192   194    2
   188   192   193    1
   189   193   195    1
   190   194   197   ar
   191   194   196   ar
   192   195   196    2
   193   196   198   ar
   194   197   199   ar
   195   198   200   ar
   196   199   200   ar
   197   201   202    1
   198   202   205    1
   199   202   203    1
   200   203   204    2
   201   205   206    1
   202   206   208    1
   203   206   207    1
