@<TRIPOS>MOLECULE
./6ins/ligand.pdb
 11 11 0 0 0
SMALL
GASTEIGER

@<TRIPOS>ATOM
      1  C         -7.7830    2.4740    5.4960 C.2     1  MPB1        0.3413
      2  CM        -7.7990    1.7440    3.1070 C.3     1  MPB1        0.2560
      3  C1        -8.4020    3.2300    6.6350 C.ar    1  MPB1        0.0759
      4  O1        -6.5940    2.1740    5.5210 O.2     1  MPB1       -0.2449
      5  C2        -7.6700    3.6240    7.7480 C.ar    1  MPB1        0.0097
      6  O2        -8.6060    2.0700    4.3230 O.3     1  MPB1       -0.4413
      7  C3        -8.2480    4.3220    8.8080 C.ar    1  MPB1        0.0422
      8  C4        -9.6190    4.6200    8.7640 C.ar    1  MPB1        0.1958
      9  O4       -10.1920    5.3160    9.8210 O.3     1  MPB1       -0.2866
     10  C5       -10.3550    4.2130    7.6590 C.ar    1  MPB1        0.0422
     11  C6        -9.7740    3.5130    6.6010 C.ar    1  MPB1        0.0097
@<TRIPOS>BOND
     1     1     3    1
     2     1     4    2
     3     1     6    1
     4     2     6    1
     5     3     5   ar
     6     3    11   ar
     7     5     7   ar
     8     7     8   ar
     9     8     9    1
    10     8    10   ar
    11    10    11   ar
