@<TRIPOS>MOLECULE
./3gdl/protein.pdb
 340 327 0 0 0
SMALL
GASTEIGER

@<TRIPOS>ATOM
      1 N           4.6050   75.4100   31.8300 N.3     1  CYS1       -0.1221
      2 CA          4.6000   75.9060   30.4680 C.3     1  CYS1        0.1808
      3 C           4.5580   74.6610   29.5900 C.2     1  CYS1        0.2601
      4 O           5.4310   73.8010   29.6900 O.2     1  CYS1       -0.2717
      5 CB          5.8680   76.7030   30.1780 C.3     1  CYS1        0.0970
      6 SG          6.1120   77.0410   28.4120 S.3     1  CYS1       -0.0800
      7 N           3.5350   74.5540   28.7470 N.am    2  ALA2       -0.1965
      8 CA          3.3990   73.4000   27.8650 C.3     2  ALA2        0.1728
      9 C           4.0730   73.6690   26.5280 C.2     2  ALA2        0.2617
     10 O           3.9200   74.7460   25.9580 O.2     2  ALA2       -0.2715
     11 CB          1.9280   73.0770   27.6430 C.3     2  ALA2        0.0334
     12 N           4.8080   72.6740   26.0430 N.am    3  SER3       -0.1936
     13 CA          5.5250   72.7510   24.7710 C.3     3  SER3        0.2055
     14 C           4.9160   71.6460   23.9100 C.2     3  SER3        0.2643
     15 O           5.4760   70.5610   23.7830 O.2     3  SER3       -0.2714
     16 CB          7.0130   72.4900   25.0160 C.3     3  SER3        0.2130
     17 OG          7.7770   72.6950   23.8430 O.3     3  SER3       -0.2179
     18 N           3.7540   71.9340   23.3300 N.am    4  LEU4       -0.1963
     19 CA          3.0200   70.9530   22.5360 C.3     4  LEU4        0.1728
     20 C           3.5260   70.8980   21.1060 C.2     4  LEU4        0.2616
     21 O           2.8570   71.3230   20.1590 O.2     4  LEU4       -0.2715
     22 CB          1.5310   71.2930   22.5970 C.3     4  LEU4        0.0311
     23 CG          1.0910   71.4330   24.0620 C.3     4  LEU4        0.0022
     24 CD1        -0.3150   72.0010   24.1450 C.3     4  LEU4        0.0001
     25 CD2         1.1760   70.0740   24.7580 C.3     4  LEU4        0.0001
     26 N           4.7160   70.3310   20.9750 N.am    5  ASP5       -0.1973
     27 CA          5.4130   70.2260   19.7020 C.3     5  ASP5        0.1651
     28 C           4.9130   69.1600   18.7380 C.2     5  ASP5        0.2291
     29 O           5.5600   68.1270   18.5340 O.2     5  ASP5       -0.2864
     30 CB          6.9070   70.0490   19.9840 C.3     5  ASP5        0.0714
     31 CG          7.4600   71.1730   20.8430 C.2     5  ASP5        0.0525
     32 OD1         7.0410   72.3340   20.6240 O.co2   5  ASP5       -0.5491
     33 OD2         8.3110   70.9100   21.7270 O.co2   5  ASP5       -0.5491
     34 N           4.4500   77.4230   25.0580 N.3     1  LYS1       -0.1245
     35 CA          5.6370   77.6100   24.2310 C.3     1  LYS1        0.1561
     36 C           5.3580   76.8980   22.9220 C.2     1  LYS1        0.2260
     37 O           5.0090   75.7190   22.9100 O.2     1  LYS1       -0.2867
     38 CB          6.8880   77.0140   24.8810 C.3     1  LYS1        0.0271
     39 CG          8.1560   77.3130   24.0820 C.3     1  LYS1        0.0035
     40 CD          9.4120   76.7660   24.7540 C.3     1  LYS1        0.0206
     41 CE          9.5260   75.2630   24.5810 C.3     1  LYS1        0.1093
     42 NZ          9.6520   74.8980   23.1340 N.3     1  LYS1       -0.1314
     43 N           6.3880   76.1420   18.6000 N.3     1  HIS1       -0.1241
     44 CA          7.3670   76.0810   17.5230 C.3     1  HIS1        0.1618
     45 C           6.4240   76.1110   16.3220 C.2     1  HIS1        0.2264
     46 O           6.0660   75.0600   15.7920 O.2     1  HIS1       -0.2867
     47 CB          8.1380   74.7570   17.4980 C.3     1  HIS1        0.0704
     48 CG          9.3060   74.7050   18.4330 C.2     1  HIS1        0.0649
     49 ND1        10.2880   75.6730   18.4580 N.2     1  HIS1       -0.2310
     50 CD2         9.6760   73.7680   19.3380 C.3     1  HIS1        0.1683
     51 CE1        11.2140   75.3320   19.3380 C.2     1  HIS1        0.1939
     52 NE2        10.8670   74.1800   19.8840 N.2     1  HIS1       -0.2440
     53 N           7.1580   74.0790   12.9180 N.3     1  ILE1       -0.1245
     54 CA          7.1650   72.6330   12.7350 C.3     1  ILE1        0.1561
     55 C           5.7600   72.2510   12.2630 C.2     1  ILE1        0.2260
     56 O           5.4590   71.0790   12.0580 O.2     1  ILE1       -0.2867
     57 CB          7.5140   71.8140   14.0110 C.3     1  ILE1        0.0252
     58 CG1         6.4870   72.0500   15.1150 C.3     1  ILE1        0.0019
     59 CG2         8.9360   72.1370   14.4560 C.3     1  ILE1        0.0019
     60 CD1         6.6370   71.0710   16.2770 C.3     1  ILE1        0.0001
     61 N           4.4810   82.1190   23.9350 N.3     1  PHE1       -0.1241
     62 CA          5.9330   82.1820   23.8200 C.3     1  PHE1        0.1605
     63 C           6.3870   81.3950   22.5880 C.2     1  PHE1        0.2264
     64 O           6.3490   80.1690   22.5880 O.2     1  PHE1       -0.2867
     65 CB          6.5460   81.6080   25.1140 C.3     1  PHE1        0.0534
     66 CG          8.0230   81.2760   25.0380 C.ar    1  PHE1       -0.0203
     67 CD1         8.8690   81.8910   24.1180 C.ar    1  PHE1       -0.0042
     68 CD2         8.5740   80.3600   25.9380 C.ar    1  PHE1       -0.0042
     69 CE1        10.2340   81.5980   24.0920 C.ar    1  PHE1       -0.0003
     70 CE2         9.9400   80.0630   25.9220 C.ar    1  PHE1       -0.0003
     71 CZ         10.7720   80.6810   24.9980 C.ar    1  PHE1       -0.0000
     72 N           9.1110   79.9040   20.5710 N.3     1  ASP1       -0.1241
     73 CA         10.4750   79.4410   20.8040 C.3     1  ASP1        0.1616
     74 C          11.2830   79.3480   19.5160 C.2     1  ASP1        0.2264
     75 O          11.7590   78.2800   19.1410 O.2     1  ASP1       -0.2867
     76 CB         10.3820   78.0770   21.5110 C.3     1  ASP1        0.0687
     77 CG         11.7230   77.5240   21.9320 C.2     1  ASP1        0.0522
     78 OD1        12.7000   78.2950   22.0250 O.co2   1  ASP1       -0.5491
     79 OD2        11.7860   76.2990   22.1860 O.co2   1  ASP1       -0.5491
     80 N          14.1890   80.8780   18.9430 N.3     1  LYS1       -0.1245
     81 CA         15.6300   80.9160   19.1890 C.3     1  LYS1        0.1561
     82 C          16.4140   81.7300   18.1550 C.2     1  LYS1        0.2260
     83 O          17.3240   81.2180   17.4920 O.2     1  LYS1       -0.2867
     84 CB         16.1950   79.4890   19.2610 C.3     1  LYS1        0.0271
     85 CG         15.6670   78.6700   20.4390 C.3     1  LYS1        0.0035
     86 CD         16.4480   77.3630   20.6090 C.3     1  LYS1        0.0206
     87 CE         16.0170   76.6140   21.8670 C.3     1  LYS1        0.1093
     88 NZ         14.5680   76.2700   21.8710 N.3     1  LYS1       -0.1314
     89 N          12.5930   84.3140   22.2400 N.3     1  ASN1       -0.1240
     90 CA         13.9260   84.1750   22.8030 C.3     1  ASN1        0.1653
     91 C          15.0370   84.2990   21.7810 C.2     1  ASN1        0.2266
     92 O          14.7940   84.3120   20.5710 O.2     1  ASN1       -0.2867
     93 CB         14.0450   82.8430   23.5490 C.3     1  ASN1        0.1155
     94 CG         13.7390   81.6450   22.6690 C.2     1  ASN1        0.2627
     95 OD1        13.3570   81.7910   21.5070 O.2     1  ASN1       -0.2716
     96 ND2        13.8970   80.4470   23.2260 N.am    1  ASN1       -0.0877
     97 N          19.5910   83.5260   21.2020 N.3     1  HIS1       -0.1241
     98 CA         20.8710   83.0050   21.6550 C.3     1  HIS1        0.1621
     99 C          21.8010   84.2050   21.8320 C.2     1  HIS1        0.2264
    100 O          21.7000   85.1920   21.1010 O.2     1  HIS1       -0.2867
    101 CB         21.4560   82.0420   20.6100 C.3     1  HIS1        0.0745
    102 CG         20.9100   80.6500   20.6900 C.ar    1  HIS1        0.0817
    103 ND1        21.1430   79.8220   21.7670 N.ar    1  HIS1       -0.2268
    104 CD2        20.1660   79.9300   19.8170 C.ar    1  HIS1        0.1154
    105 CE1        20.5710   78.6500   21.5520 C.ar    1  HIS1        0.1986
    106 NE2        19.9710   78.6890   20.3760 N.ar    1  HIS1       -0.2212
    107 N          18.9890   82.6910   25.9390 N.3     1  LEU1       -0.1245
    108 CA         19.3030   81.2890   26.1850 C.3     1  LEU1        0.1561
    109 C          20.6560   81.1770   26.8860 C.2     1  LEU1        0.2260
    110 O          21.7050   81.1690   26.2460 O.2     1  LEU1       -0.2867
    111 CB         19.2950   80.5270   24.8520 C.3     1  LEU1        0.0270
    112 CG         17.8690   80.3530   24.2970 C.3     1  LEU1        0.0019
    113 CD1        17.8660   80.4920   22.7740 C.3     1  LEU1        0.0001
    114 CD2        17.3080   78.9980   24.7340 C.3     1  LEU1        0.0001
    115 N          21.5200   78.6070   29.1540 N.3     1  GLU1       -0.1231
    116 CA         21.9380   77.2070   29.2290 C.3     1  GLU1        0.1697
    117 C          20.9570   76.3220   28.4720 C.2     1  GLU1        0.2592
    118 O          19.8090   76.7020   28.2540 O.2     1  GLU1       -0.2718
    119 CB         22.0060   76.7380   30.6880 C.3     1  GLU1        0.0343
    120 CG         22.9770   77.5200   31.5650 C.3     1  GLU1        0.0437
    121 CD         22.9950   77.0190   32.9980 C.2     1  GLU1        0.0504
    122 OE2        21.9070   76.8550   33.5820 O.co2   1  GLU1       -0.5492
    123 OE1        24.0980   76.7980   33.5410 O.co2   1  GLU1       -0.5492
    124 N          21.4220   75.1420   28.0740 N.am    2  LEU2       -0.1966
    125 CA         20.6030   74.1790   27.3520 C.3     2  LEU2        0.1728
    126 C          20.6550   72.8440   28.0950 C.2     2  LEU2        0.2617
    127 O          21.6130   72.5650   28.8200 O.2     2  LEU2       -0.2715
    128 CB         21.1260   74.0070   25.9210 C.3     2  LEU2        0.0311
    129 CG         21.0740   75.2630   25.0460 C.3     2  LEU2        0.0022
    130 CD1        21.7430   74.9860   23.7090 C.3     2  LEU2        0.0001
    131 CD2        19.6200   75.6930   24.8480 C.3     2  LEU2        0.0001
    132 N          19.6260   72.0260   27.9140 N.am    3  SER3       -0.1936
    133 CA         19.5500   70.7310   28.5810 C.3     3  SER3        0.2055
    134 C          20.1630   69.5920   27.7740 C.2     3  SER3        0.2643
    135 O          20.2760   68.4740   28.2680 O.2     3  SER3       -0.2714
    136 CB         18.0910   70.3890   28.8840 C.3     3  SER3        0.2130
    137 OG         17.3240   70.3630   27.6890 O.3     3  SER3       -0.2179
    138 N          20.5650   69.8700   26.5420 N.am    4  CYS4       -0.1953
    139 CA         21.1230   68.8300   25.6900 C.3     4  CYS4        0.1843
    140 C          22.5550   68.4270   25.9930 C.2     4  CYS4        0.2625
    141 O          23.3630   69.2240   26.4700 O.2     4  CYS4       -0.2714
    142 CB         21.0180   69.2500   24.2300 C.3     4  CYS4        0.0997
    143 SG         21.6670   70.8740   23.9690 S.3     4  CYS4       -0.0797
    144 N          22.8580   67.1700   25.6940 N.am    5  LYS5       -0.1977
    145 CA         24.1850   66.6180   25.9220 C.3     5  LYS5        0.1596
    146 C          25.2200   67.3260   25.0550 C.2     5  LYS5        0.2287
    147 O          25.0110   67.5170   23.8580 O.2     5  LYS5       -0.2864
    148 CB         24.1820   65.1200   25.6000 C.3     5  LYS5        0.0298
    149 CG         25.5130   64.4300   25.8460 C.3     5  LYS5        0.0038
    150 CD         25.4770   62.9560   25.4460 C.3     5  LYS5        0.0206
    151 CE         24.5120   62.1440   26.2980 C.3     5  LYS5        0.1093
    152 NZ         23.0840   62.4530   26.0110 N.3     5  LYS5       -0.1314
    153 N          16.3420   81.2070   29.6070 N.3     1  ILE1       -0.1245
    154 CA         15.9650   79.8180   29.4350 C.3     1  ILE1        0.1561
    155 C          17.2570   79.3080   30.0700 C.2     1  ILE1        0.2260
    156 O          18.3490   79.5800   29.5590 O.2     1  ILE1       -0.2867
    157 CB         15.9290   79.3820   27.9580 C.3     1  ILE1        0.0252
    158 CG1        14.6640   79.9240   27.2850 C.3     1  ILE1        0.0019
    159 CG2        15.9900   77.8590   27.8660 C.3     1  ILE1        0.0019
    160 CD1        13.3660   79.4260   27.9040 C.3     1  ILE1        0.0001
    161 N          19.1260   76.3160   33.2430 N.3     1  GLN1       -0.1245
    162 CA         19.0200   75.1220   34.0720 C.3     1  GLN1        0.1566
    163 C          19.2700   75.4030   35.5490 C.2     1  GLN1        0.2260
    164 O          19.2510   74.4850   36.3730 O.2     1  GLN1       -0.2867
    165 CB         20.0150   74.0710   33.5810 C.3     1  GLN1        0.0367
    166 CG         19.7050   73.5190   32.2020 C.3     1  GLN1        0.0905
    167 CD         18.3930   72.7650   32.1750 C.2     1  GLN1        0.2608
    168 OE1        18.1290   71.9340   33.0430 O.2     1  GLN1       -0.2717
    169 NE2        17.5620   73.0450   31.1750 N.am    1  GLN1       -0.0878
    170 N          12.8160   76.6860   32.6420 N.3     1  THR1       -0.1204
    171 CA         13.6320   75.5100   32.4150 C.3     1  THR1        0.1979
    172 C          13.0330   74.3480   31.6370 C.2     1  THR1        0.2460
    173 O          12.0970   73.6950   32.1000 O.2     1  THR1       -0.2732
    174 CB         14.1190   74.9730   33.7750 C.3     1  THR1        0.1783
    175 OG1        14.6980   76.0560   34.5180 O.3     1  THR1       -0.2211
    176 CG2        15.1510   73.8610   33.5850 C.3     1  THR1        0.0376
    177 N          13.5730   74.0810   30.4350 N.am    2  PRO2       -0.2717
    178 CA         13.1180   72.9830   29.5740 C.3     2  PRO2        0.1536
    179 C          13.9210   71.7500   29.9900 C.2     2  PRO2        0.2599
    180 O          14.7810   71.8380   30.8690 O.2     2  PRO2       -0.2715
    181 CB         13.5060   73.4430   28.1640 C.3     2  PRO2        0.0310
    182 CG         13.8120   74.9220   28.3090 C.3     2  PRO2        0.0237
    183 CD         14.4310   75.0010   29.6750 C.3     2  PRO2        0.0939
    184 N          13.6720   70.6160   29.3440 N.am    3  GLY3       -0.1941
    185 CA         14.3910   69.4040   29.6960 C.3     3  GLY3        0.2014
    186 C          13.8470   68.8870   31.0120 C.2     3  GLY3        0.2639
    187 O          14.5970   68.4610   31.8920 O.2     3  GLY3       -0.2714
    188 N          12.5280   68.9490   31.1460 N.am    4  VAL4       -0.1963
    189 CA         11.8470   68.5010   32.3520 C.3     4  VAL4        0.1727
    190 C          10.9300   67.3300   32.0280 C.2     4  VAL4        0.2617
    191 O          10.0740   67.4190   31.1470 O.2     4  VAL4       -0.2715
    192 CB         11.0180   69.6500   32.9760 C.3     4  VAL4        0.0290
    193 CG2        10.2310   69.1440   34.1820 C.3     4  VAL4        0.0023
    194 CG1        11.9460   70.7820   33.3950 C.3     4  VAL4        0.0023
    195 N          11.1310   66.2260   32.7380 N.am    5  GLY5       -0.1940
    196 CA         10.3190   65.0460   32.5310 C.3     5  GLY5        0.2014
    197 C          10.3500   64.1970   33.7830 C.2     5  GLY5        0.2638
    198 O          11.4010   64.0350   34.4050 O.2     5  GLY5       -0.2714
    199 N           9.1980   63.6650   34.1640 N.am    6  LEU6       -0.1977
    200 CA          9.1150   62.8310   35.3540 C.3     6  LEU6        0.1596
    201 C           9.3370   61.3650   35.0110 C.2     6  LEU6        0.2287
    202 O           9.6090   60.5480   35.8950 O.2     6  LEU6       -0.2864
    203 CB          7.7450   62.9930   36.0090 C.3     6  LEU6        0.0297
    204 CG          7.4310   64.3630   36.6150 C.3     6  LEU6        0.0022
    205 CD1         5.9560   64.4450   36.9560 C.3     6  LEU6        0.0001
    206 CD2         8.2940   64.5870   37.8510 C.3     6  LEU6        0.0001
    207 N          10.5580   60.1120   31.2170 N.3     1  ASP1       -0.1241
    208 CA         11.6160   59.9500   30.2280 C.3     1  ASP1        0.1616
    209 C          12.9550   60.3540   30.8300 C.2     1  ASP1        0.2264
    210 O          13.0190   61.2360   31.6870 O.2     1  ASP1       -0.2867
    211 CB         11.3500   60.8170   28.9900 C.3     1  ASP1        0.0687
    212 CG         10.0430   60.4720   28.2950 C.2     1  ASP1        0.0522
    213 OD2         9.6710   59.2790   28.2770 O.co2   1  ASP1       -0.5491
    214 OD1         9.3970   61.3940   27.7470 O.co2   1  ASP1       -0.5491
    215 N          16.2270   61.4170   25.0630 N.3     1  ASP1       -0.1241
    216 CA         15.7780   60.9080   23.7710 C.3     1  ASP1        0.1616
    217 C          16.9860   60.4350   22.9750 C.2     1  ASP1        0.2264
    218 O          18.1040   60.4190   23.4910 O.2     1  ASP1       -0.2867
    219 CB         14.9580   61.9530   22.9850 C.3     1  ASP1        0.0687
    220 CG         15.7810   63.1220   22.4830 C.2     1  ASP1        0.0522
    221 OD2        17.0300   63.0610   22.4950 O.co2   1  ASP1       -0.5491
    222 OD1        15.1520   64.1170   22.0540 O.co2   1  ASP1       -0.5491
    223 N          18.3570   61.8780   20.4930 N.3     1  LEU1       -0.1231
    224 CA         19.0960   62.9740   19.8830 C.3     1  LEU1        0.1693
    225 C          19.6570   64.0180   20.8430 C.2     1  LEU1        0.2593
    226 O          19.5930   65.2200   20.5770 O.2     1  LEU1       -0.2718
    227 CB         18.2220   63.6530   18.8220 C.3     1  LEU1        0.0284
    228 CG         17.9490   62.7890   17.5830 C.3     1  LEU1        0.0019
    229 CD1        16.8750   63.4300   16.7320 C.3     1  LEU1        0.0001
    230 CD2        19.2350   62.6090   16.7880 C.3     1  LEU1        0.0001
    231 N          20.2030   63.5590   21.9630 N.am    2  GLY2       -0.1942
    232 CA         20.8140   64.4810   22.9020 C.3     2  GLY2        0.2014
    233 C          19.9850   65.1300   23.9950 C.2     2  GLY2        0.2639
    234 O          20.5480   65.8150   24.8400 O.2     2  GLY2       -0.2714
    235 N          18.6710   64.9450   24.0030 N.am    3  GLN3       -0.1963
    236 CA         17.8800   65.5600   25.0660 C.3     3  GLN3        0.1733
    237 C          18.1020   64.8170   26.3770 C.2     3  GLN3        0.2616
    238 O          18.3040   63.5990   26.3890 O.2     3  GLN3       -0.2715
    239 CB         16.3850   65.5580   24.7180 C.3     3  GLN3        0.0408
    240 CG         15.4790   66.0930   25.8360 C.3     3  GLN3        0.0908
    241 CD         15.7010   67.5690   26.1340 C.2     3  GLN3        0.2608
    242 OE1        16.8160   67.9930   26.4320 O.2     3  GLN3       -0.2717
    243 NE2        14.6330   68.3570   26.0620 N.am    3  GLN3       -0.0878
    244 N          18.0780   65.5660   27.4760 N.am    4  GLN4       -0.1963
    245 CA         18.2610   65.0120   28.8130 C.3     4  GLN4        0.1733
    246 C          17.1750   65.6140   29.6910 C.2     4  GLN4        0.2616
    247 O          16.8740   66.8030   29.5800 O.2     4  GLN4       -0.2715
    248 CB         19.6370   65.3890   29.3650 C.3     4  GLN4        0.0408
    249 CG         20.7990   64.9330   28.4940 C.3     4  GLN4        0.0908
    250 CD         22.1400   65.4170   29.0130 C.2     4  GLN4        0.2608
    251 OE1        22.4050   66.6210   29.0600 O.2     4  GLN4       -0.2717
    252 NE2        22.9940   64.4800   29.4050 N.am    4  GLN4       -0.0878
    253 N          16.5850   64.7970   30.5580 N.am    5  TYR5       -0.1974
    254 CA         15.5250   65.2710   31.4360 C.3     5  TYR5        0.1639
    255 C          15.8710   65.2390   32.9160 C.2     5  TYR5        0.2290
    256 O          16.5710   64.3430   33.3920 O.2     5  TYR5       -0.2864
    257 CB         14.2540   64.4430   31.2350 C.3     5  TYR5        0.0560
    258 CG         13.6530   64.5540   29.8580 C.ar    5  TYR5       -0.0198
    259 CD2        13.0420   65.7340   29.4340 C.ar    5  TYR5       -0.0009
    260 CD1        13.7080   63.4820   28.9690 C.ar    5  TYR5       -0.0009
    261 CE2        12.5000   65.8420   28.1500 C.ar    5  TYR5        0.0417
    262 CE1        13.1740   63.5820   27.6860 C.ar    5  TYR5        0.0417
    263 CZ         12.5740   64.7610   27.2840 C.ar    5  TYR5        0.1957
    264 OH         12.0480   64.8570   26.0130 O.3     5  TYR5       -0.2866
    265 N           9.1930   73.9180   31.7170 N.3     1  ILE1       -0.1231
    266 CA          8.7320   73.7530   30.3370 C.3     1  ILE1        0.1692
    267 C           8.7340   72.2630   30.0360 C.2     1  ILE1        0.2592
    268 O           9.7830   71.6170   30.0590 O.2     1  ILE1       -0.2718
    269 CB          9.6660   74.4840   29.3410 C.3     1  ILE1        0.0266
    270 CG1         9.6430   75.9920   29.6210 C.3     1  ILE1        0.0019
    271 CG2         9.2220   74.2060   27.9030 C.3     1  ILE1        0.0020
    272 CD1        10.6570   76.7850   28.8210 C.3     1  ILE1        0.0001
    273 N           7.5540   71.7200   29.7630 N.am    2  VAL2       -0.1966
    274 CA          7.4150   70.2930   29.5000 C.3     2  VAL2        0.1727
    275 C           6.7400   70.0320   28.1630 C.2     2  VAL2        0.2617
    276 O           5.6460   70.5430   27.9030 O.2     2  VAL2       -0.2715
    277 CB          6.5730   69.6240   30.6090 C.3     2  VAL2        0.0290
    278 CG1         6.5950   68.1040   30.4540 C.3     2  VAL2        0.0023
    279 CG2         7.0980   70.0390   31.9740 C.3     2  VAL2        0.0023
    280 N           7.3940   69.2240   27.3320 N.am    3  GLY3       -0.1940
    281 CA          6.8490   68.8890   26.0280 C.3     3  GLY3        0.2014
    282 C           6.3360   67.4600   25.9510 C.2     3  GLY3        0.2639
    283 O           5.2220   67.1670   26.3830 O.2     3  GLY3       -0.2714
    284 N           7.1610   66.5710   25.4080 N.am    4  ARG4       -0.1963
    285 CA          6.7990   65.1690   25.2470 C.3     4  ARG4        0.1729
    286 C           6.3230   64.4960   26.5270 C.2     4  ARG4        0.2617
    287 O           5.5750   63.5210   26.4740 O.2     4  ARG4       -0.2715
    288 CB          7.9730   64.4020   24.6370 C.3     4  ARG4        0.0348
    289 CG          8.1410   64.6870   23.1440 C.3     4  ARG4        0.0492
    290 CD          9.4740   64.1990   22.6060 C.3     4  ARG4        0.2205
    291 NE         10.5750   65.0870   22.9710 N.pl3   4  ARG4       -0.0865
    292 CZ         11.8400   64.8940   22.6120 C.cat   4  ARG4        0.5346
    293 NH1        12.1680   63.8380   21.8770 N.pl3   4  ARG4        0.1354
    294 NH2        12.7780   65.7560   22.9810 N.pl3   4  ARG4        0.1354
    295 N           6.7530   65.0100   27.6750 N.am    5  GLY5       -0.1940
    296 CA          6.3110   64.4340   28.9330 C.3     5  GLY5        0.2014
    297 C           4.8140   64.6050   29.1160 C.2     5  GLY5        0.2639
    298 O           4.1850   63.9120   29.9220 O.2     5  GLY5       -0.2714
    299 N           4.2360   65.5300   28.3570 N.am    6  LEU6       -0.1963
    300 CA          2.8080   65.8020   28.4400 C.3     6  LEU6        0.1728
    301 C           1.9430   65.1080   27.3960 C.2     6  LEU6        0.2616
    302 O           0.8740   64.5880   27.7160 O.2     6  LEU6       -0.2715
    303 CB          2.5430   67.3090   28.3090 C.3     6  LEU6        0.0311
    304 CG          3.1380   68.2970   29.3060 C.3     6  LEU6        0.0022
    305 CD1         2.7370   69.7200   28.9100 C.3     6  LEU6        0.0001
    306 CD2         2.6370   67.9780   30.7020 C.3     6  LEU6        0.0001
    307 N           2.4060   65.0940   26.1490 N.am    7  PHE7       -0.1974
    308 CA          1.5940   64.5660   25.0500 C.3     7  PHE7        0.1639
    309 C           2.1110   63.3900   24.2320 C.2     7  PHE7        0.2290
    310 O           1.3440   62.7880   23.4840 O.2     7  PHE7       -0.2864
    311 CB          1.3190   65.7070   24.0720 C.3     7  PHE7        0.0560
    312 CG          2.5250   66.0970   23.2620 C.ar    7  PHE7       -0.0200
    313 CD1         2.8180   65.4430   22.0670 C.ar    7  PHE7       -0.0042
    314 CD2         3.4150   67.0520   23.7360 C.ar    7  PHE7       -0.0042
    315 CE1         3.9800   65.7300   21.3610 C.ar    7  PHE7       -0.0003
    316 CE2         4.5850   67.3510   23.0400 C.ar    7  PHE7       -0.0003
    317 CZ          4.8720   66.6860   21.8470 C.ar    7  PHE7       -0.0000
    318 N           0.5610   59.3910   25.8250 N.3     1  ARG1       -0.1245
    319 CA          0.1270   60.0500   27.0510 C.3     1  ARG1        0.1563
    320 C          -1.1340   60.8960   26.9120 C.2     1  ARG1        0.2260
    321 O          -1.4310   61.4290   25.8390 O.2     1  ARG1       -0.2867
    322 CB          1.2670   60.9040   27.6030 C.3     1  ARG1        0.0307
    323 CG          2.4170   60.0680   28.1450 C.3     1  ARG1        0.0489
    324 CD          3.6840   60.8780   28.3360 C.3     1  ARG1        0.2205
    325 NE          4.7340   60.0540   28.9250 N.pl3   1  ARG1       -0.0865
    326 CZ          6.0280   60.1510   28.6370 C.cat   1  ARG1        0.5346
    327 NH1         6.4620   61.0450   27.7530 N.pl3   1  ARG1        0.1354
    328 NH2         6.8930   59.3430   29.2340 N.pl3   1  ARG1        0.1354
    329 N           1.7290   67.4790   36.2420 N.3     1  TYR1       -0.1241
    330 CA          2.8980   68.3490   36.2480 C.3     1  TYR1        0.1605
    331 C           2.6080   69.6750   36.9450 C.2     1  TYR1        0.2264
    332 O           3.4700   70.2110   37.6370 O.2     1  TYR1       -0.2867
    333 CB          3.3870   68.5970   34.8180 C.3     1  TYR1        0.0534
    334 CG          4.2810   67.4970   34.2810 C.ar    1  TYR1       -0.0201
    335 CD2         5.6670   67.6020   34.3580 C.ar    1  TYR1       -0.0009
    336 CD1         3.7390   66.3530   33.6950 C.ar    1  TYR1       -0.0009
    337 CE2         6.5000   66.5980   33.8590 C.ar    1  TYR1        0.0417
    338 CE1         4.5600   65.3400   33.1920 C.ar    1  TYR1        0.0417
    339 CZ          5.9380   65.4720   33.2760 C.ar    1  TYR1        0.1957
    340 OH          6.7580   64.4940   32.7610 O.3     1  TYR1       -0.2866
@<TRIPOS>UNITY_ATOM_ATTR
32 1
charge -1
78 1
charge -1
122 1
charge -1
213 1
charge -1
221 1
charge -1
@<TRIPOS>BOND
     1     1     2    1
     2     2     3    1
     3     2     5    1
     4     3     7   am
     5     3     4    2
     6     5     6    1
     7     7     8    1
     8     8     9    1
     9     8    11    1
    10     9    10    2
    11     9    12   am
    12    12    13    1
    13    13    14    1
    14    13    16    1
    15    14    18   am
    16    14    15    2
    17    16    17    1
    18    18    19    1
    19    19    20    1
    20    19    22    1
    21    20    21    2
    22    20    26   am
    23    22    23    1
    24    23    24    1
    25    23    25    1
    26    26    27    1
    27    27    28    1
    28    27    30    1
    29    28    29    2
    30    30    31    1
    31    31    32   ar
    32    31    33   ar
    33    34    35    1
    34    35    36    1
    35    35    38    1
    36    36    37    2
    37    38    39    1
    38    39    40    1
    39    40    41    1
    40    41    42    1
    41    43    44    1
    42    44    45    1
    43    44    47    1
    44    45    46    2
    45    47    48    1
    46    48    49    2
    47    48    50    1
    48    49    51    1
    49    50    52    1
    50    51    52    2
    51    53    54    1
    52    54    55    1
    53    54    57    1
    54    55    56    2
    55    57    59    1
    56    57    58    1
    57    58    60    1
    58    61    62    1
    59    62    63    1
    60    62    65    1
    61    63    64    2
    62    65    66    1
    63    66    67   ar
    64    66    68   ar
    65    67    69   ar
    66    68    70   ar
    67    69    71   ar
    68    70    71   ar
    69    72    73    1
    70    73    74    1
    71    73    76    1
    72    74    75    2
    73    76    77    1
    74    77    78   ar
    75    77    79   ar
    76    80    81    1
    77    81    82    1
    78    81    84    1
    79    82    83    2
    80    84    85    1
    81    85    86    1
    82    86    87    1
    83    87    88    1
    84    89    90    1
    85    90    91    1
    86    90    93    1
    87    91    92    2
    88    93    94    1
    89    94    95    2
    90    94    96   am
    91    97    98    1
    92    98   101    1
    93    98    99    1
    94    99   100    2
    95   101   102    1
    96   102   104   ar
    97   102   103   ar
    98   103   105   ar
    99   104   106   ar
   100   105   106   ar
   101   107   108    1
   102   108   111    1
   103   108   109    1
   104   109   110    2
   105   111   112    1
   106   112   113    1
   107   112   114    1
   108   115   116    1
   109   116   117    1
   110   116   119    1
   111   117   124   am
   112   117   118    2
   113   119   120    1
   114   120   121    1
   115   121   123   ar
   116   121   122   ar
   117   124   125    1
   118   125   128    1
   119   125   126    1
   120   126   132   am
   121   126   127    2
   122   128   129    1
   123   129   130    1
   124   129   131    1
   125   132   133    1
   126   133   134    1
   127   133   136    1
   128   134   138   am
   129   134   135    2
   130   136   137    1
   131   138   139    1
   132   139   142    1
   133   139   140    1
   134   140   144   am
   135   140   141    2
   136   142   143    1
   137   144   145    1
   138   145   146    1
   139   145   148    1
   140   146   147    2
   141   148   149    1
   142   149   150    1
   143   150   151    1
   144   151   152    1
   145   153   154    1
   146   154   157    1
   147   154   155    1
   148   155   156    2
   149   157   158    1
   150   157   159    1
   151   158   160    1
   152   161   162    1
   153   162   165    1
   154   162   163    1
   155   163   164    2
   156   165   166    1
   157   166   167    1
   158   167   169   am
   159   167   168    2
   160   170   171    1
   161   171   172    1
   162   171   174    1
   163   172   177   am
   164   172   173    2
   165   174   176    1
   166   174   175    1
   167   177   178    1
   168   177   183    1
   169   178   181    1
   170   178   179    1
   171   179   184   am
   172   179   180    2
   173   181   182    1
   174   182   183    1
   175   184   185    1
   176   185   186    1
   177   186   188   am
   178   186   187    2
   179   188   189    1
   180   189   190    1
   181   189   192    1
   182   190   191    2
   183   190   195   am
   184   192   194    1
   185   192   193    1
   186   195   196    1
   187   196   197    1
   188   197   199   am
   189   197   198    2
   190   199   200    1
   191   200   201    1
   192   200   203    1
   193   201   202    2
   194   203   204    1
   195   204   205    1
   196   204   206    1
   197   207   208    1
   198   208   211    1
   199   208   209    1
   200   209   210    2
   201   211   212    1
   202   212   214   ar
   203   212   213   ar
   204   215   216    1
   205   216   217    1
   206   216   219    1
   207   217   218    2
   208   219   220    1
   209   220   222   ar
   210   220   221   ar
   211   223   224    1
   212   224   227    1
   213   224   225    1
   214   225   226    2
   215   225   231   am
   216   227   228    1
   217   228   229    1
   218   228   230    1
   219   231   232    1
   220   232   233    1
   221   233   235   am
   222   233   234    2
   223   235   236    1
   224   236   239    1
   225   236   237    1
   226   237   238    2
   227   237   244   am
   228   239   240    1
   229   240   241    1
   230   241   243   am
   231   241   242    2
   232   244   245    1
   233   245   248    1
   234   245   246    1
   235   246   247    2
   236   246   253   am
   237   248   249    1
   238   249   250    1
   239   250   251    2
   240   250   252   am
   241   253   254    1
   242   254   257    1
   243   254   255    1
   244   255   256    2
   245   257   258    1
   246   258   260   ar
   247   258   259   ar
   248   259   261   ar
   249   260   262   ar
   250   261   263   ar
   251   262   263   ar
   252   263   264    1
   253   265   266    1
   254   266   269    1
   255   266   267    1
   256   267   273   am
   257   267   268    2
   258   269   271    1
   259   269   270    1
   260   270   272    1
   261   273   274    1
   262   274   275    1
   263   274   277    1
   264   275   280   am
   265   275   276    2
   266   277   278    1
   267   277   279    1
   268   280   281    1
   269   281   282    1
   270   282   284   am
   271   282   283    2
   272   284   285    1
   273   285   288    1
   274   285   286    1
   275   286   287    2
   276   286   295   am
   277   288   289    1
   278   289   290    1
   279   290   291    1
   280   291   292    2
   281   292   293    1
   282   292   294    1
   283   295   296    1
   284   296   297    1
   285   297   299   am
   286   297   298    2
   287   299   300    1
   288   300   301    1
   289   300   303    1
   290   301   307   am
   291   301   302    2
   292   303   304    1
   293   304   305    1
   294   304   306    1
   295   307   308    1
   296   308   311    1
   297   308   309    1
   298   309   310    2
   299   311   312    1
   300   312   313   ar
   301   312   314   ar
   302   313   315   ar
   303   314   316   ar
   304   315   317   ar
   305   316   317   ar
   306   318   319    1
   307   319   320    1
   308   319   322    1
   309   320   321    2
   310   322   323    1
   311   323   324    1
   312   324   325    1
   313   325   326    2
   314   326   327    1
   315   326   328    1
   316   329   330    1
   317   330   333    1
   318   330   331    1
   319   331   332    2
   320   333   334    1
   321   334   336   ar
   322   334   335   ar
   323   335   337   ar
   324   336   338   ar
   325   337   339   ar
   326   338   339   ar
   327   339   340    1
