@<TRIPOS>MOLECULE
./1bq3/protein.pdb
 286 282 0 0 0
SMALL
GASTEIGER

@<TRIPOS>ATOM
      1 N           4.3210  -13.3420   47.0480 N.3     1  ARG1       -0.1231
      2 CA          4.3510  -12.4280   45.9120 C.3     1  ARG1        0.1694
      3 C           2.9810  -11.7490   45.8220 C.2     1  ARG1        0.2592
      4 O           1.9560  -12.4110   45.6690 O.2     1  ARG1       -0.2718
      5 CB          4.6500  -13.1990   44.6180 C.3     1  ARG1        0.0321
      6 CG          4.8590  -12.2970   43.4200 C.3     1  ARG1        0.0489
      7 CD          4.5380  -12.9910   42.1300 C.3     1  ARG1        0.2205
      8 NE          4.6520  -12.0460   41.0260 N.pl3   1  ARG1       -0.0865
      9 CZ          4.8330  -12.3870   39.7510 C.cat   1  ARG1        0.5346
     10 NH2         4.9130  -13.6690   39.4060 N.pl3   1  ARG1        0.1354
     11 NH1         4.9630  -11.4370   38.8250 N.pl3   1  ARG1        0.1354
     12 N           2.9690  -10.4280   45.9180 N.am    2  HIS2       -0.1962
     13 CA          1.7280   -9.6770   45.8740 C.3     2  HIS2        0.1784
     14 C           0.8950   -9.9790   44.6260 C.2     2  HIS2        0.2621
     15 O           1.4320  -10.1310   43.5210 O.2     2  HIS2       -0.2715
     16 CB          2.0310   -8.1860   45.9540 C.3     2  HIS2        0.0745
     17 CG          2.8080   -7.6690   44.7880 C.2     2  HIS2        0.0653
     18 ND1         2.2160   -7.3550   43.5810 N.2     2  HIS2       -0.2310
     19 CD2         4.1310   -7.4310   44.6330 C.3     2  HIS2        0.1683
     20 CE1         3.1420   -6.9470   42.7340 C.2     2  HIS2        0.1939
     21 NE2         4.3120   -6.9820   43.3470 N.2     2  HIS2       -0.2440
     22 N          -0.4220  -10.0500   44.8040 N.am    3  GLY3       -0.1940
     23 CA         -1.3000  -10.3290   43.6850 C.3     3  GLY3        0.2014
     24 C          -1.2190   -9.2770   42.5920 C.2     3  GLY3        0.2639
     25 O          -0.3710   -8.3820   42.6310 O.2     3  GLY3       -0.2714
     26 N          -2.1470   -9.3610   41.6450 N.am    4  GLN4       -0.1963
     27 CA         -2.2210   -8.4560   40.5040 C.3     4  GLN4        0.1733
     28 C          -2.2200   -6.9780   40.8410 C.2     4  GLN4        0.2617
     29 O          -2.7030   -6.5810   41.8950 O.2     4  GLN4       -0.2715
     30 CB         -3.4860   -8.7390   39.7010 C.3     4  GLN4        0.0408
     31 CG         -3.3250   -9.6920   38.5560 C.3     4  GLN4        0.0908
     32 CD         -4.3570   -9.4280   37.4730 C.2     4  GLN4        0.2608
     33 OE1        -4.4480  -10.1650   36.4850 O.2     4  GLN4       -0.2717
     34 NE2        -5.1360   -8.3580   37.6470 N.am    4  GLN4       -0.0878
     35 N          -1.7520   -6.1640   39.8950 N.am    5  SER5       -0.1950
     36 CA         -1.7260   -4.7220   40.0870 C.3     5  SER5        0.1924
     37 CB         -2.5320   -3.9630   39.0080 C.2     5  SER5        0.2314
     38 OG         -2.9600   -4.5450   38.0110 O.2     5  SER5       -0.2863
     39 C          -0.2850   -4.2210   40.1690 C.3     5  SER5        0.2116
     40 O           0.3680   -4.3270   38.9280 O.3     5  SER5       -0.2180
     41 N          -1.7030   -2.1250   36.6460 N.3     1  TRP1       -0.1227
     42 CA         -1.0440   -2.0040   35.3490 C.3     1  TRP1        0.1734
     43 C          -0.9600   -3.2930   34.5420 C.2     1  TRP1        0.2595
     44 O          -0.4140   -3.3210   33.4370 O.2     1  TRP1       -0.2718
     45 CB          0.3380   -1.4020   35.5230 C.3     1  TRP1        0.0524
     46 CG          0.3130    0.0460   35.8410 C.2     1  TRP1       -0.0167
     47 CD1        -0.7690    0.7780   36.2300 C.3     1  TRP1        0.1477
     48 CD2         1.3910    0.9810   35.6510 C.ar    1  TRP1        0.0113
     49 NE1        -0.4480    2.1140   36.2590 N.2     1  TRP1       -0.2659
     50 CE2         0.8700    2.2710   35.9060 C.ar    1  TRP1        0.0758
     51 CE3         2.7450    0.8570   35.2750 C.ar    1  TRP1        0.0009
     52 CZ2         1.6550    3.4370   35.7880 C.ar    1  TRP1        0.0187
     53 CZ3         3.5280    2.0160   35.1580 C.ar    1  TRP1        0.0001
     54 CH2         2.9750    3.2860   35.4110 C.ar    1  TRP1        0.0015
     55 N          -1.5280   -4.3590   35.0870 N.am    2  ASN2       -0.1974
     56 CA         -1.5260   -5.6450   34.4090 C.3     2  ASN2        0.1688
     57 C          -2.4550   -5.6200   33.1860 C.2     2  ASN2        0.2292
     58 O          -2.2680   -6.3830   32.2440 O.2     2  ASN2       -0.2864
     59 CB         -1.9660   -6.7290   35.3990 C.3     2  ASN2        0.1181
     60 CG         -1.7230   -8.1260   34.8790 C.2     2  ASN2        0.2629
     61 OD1        -2.6180   -8.7520   34.3050 O.2     2  ASN2       -0.2716
     62 ND2        -0.5040   -8.6280   35.0750 N.am    2  ASN2       -0.0877
     63 N          -0.8440   -3.0570   30.3180 N.3     1  ASN1       -0.1225
     64 CA          0.2910   -3.6000   29.5820 C.3     1  ASN1        0.1785
     65 C           1.4900   -2.6670   29.7490 C.2     1  ASN1        0.2597
     66 O           2.2570   -2.4460   28.8140 O.2     1  ASN1       -0.2718
     67 CB         -0.0830   -3.7310   28.0970 C.3     1  ASN1        0.1169
     68 CG          0.5960   -4.8900   27.4190 C.2     1  ASN1        0.2627
     69 OD1         0.6250   -4.9730   26.1850 O.2     1  ASN1       -0.2716
     70 ND2         1.1300   -5.8100   28.2170 N.am    1  ASN1       -0.0877
     71 N           1.6300   -2.1040   30.9450 N.am    2  LEU2       -0.1966
     72 CA          2.7280   -1.1930   31.2380 C.3     2  LEU2        0.1728
     73 C           3.7430   -1.8270   32.1620 C.2     2  LEU2        0.2616
     74 O           3.3690   -2.4740   33.1490 O.2     2  LEU2       -0.2715
     75 CB          2.2130    0.0870   31.9110 C.3     2  LEU2        0.0311
     76 CG          1.1000    0.8840   31.2300 C.3     2  LEU2        0.0022
     77 CD2         0.9250    2.2170   31.9310 C.3     2  LEU2        0.0001
     78 CD1         1.4400    1.1160   29.7630 C.3     2  LEU2        0.0001
     79 N           5.0230   -1.6390   31.8310 N.am    3  PHE3       -0.1960
     80 CA          6.1280   -2.1310   32.6480 C.3     3  PHE3        0.1771
     81 C           6.0670   -1.2600   33.8910 C.2     3  PHE3        0.2620
     82 O           6.1030   -0.0260   33.7830 O.2     3  PHE3       -0.2715
     83 CB          7.4660   -1.9100   31.9590 C.3     3  PHE3        0.0574
     84 CG          7.7470   -2.8690   30.8420 C.ar    3  PHE3       -0.0200
     85 CD2         7.9320   -4.2230   31.1010 C.ar    3  PHE3       -0.0042
     86 CD1         7.8370   -2.4210   29.5360 C.ar    3  PHE3       -0.0042
     87 CE2         8.1990   -5.1120   30.0710 C.ar    3  PHE3       -0.0003
     88 CE1         8.1020   -3.3040   28.5060 C.ar    3  PHE3       -0.0003
     89 CZ          8.2820   -4.6510   28.7740 C.ar    3  PHE3       -0.0000
     90 N           5.9680   -1.9050   35.0560 N.am    4  THR4       -0.1937
     91 CA          5.8410   -1.2210   36.3370 C.3     4  THR4        0.2028
     92 C           7.1290   -0.8900   37.0910 C.2     4  THR4        0.2643
     93 O           7.4340    0.2900   37.3440 O.2     4  THR4       -0.2714
     94 CB          4.9350   -2.0360   37.2640 C.3     4  THR4        0.1808
     95 OG1         3.8200   -2.5190   36.5110 O.3     4  THR4       -0.2208
     96 CG2         4.4320   -1.1770   38.4100 C.3     4  THR4        0.0379
     97 N           7.8380   -1.9310   37.5230 N.am    5  GLY5       -0.1939
     98 CA          9.0630   -1.7000   38.2600 C.3     5  GLY5        0.2014
     99 C           8.8430   -1.0030   39.5930 C.2     5  GLY5        0.2638
    100 O           8.1470   -1.5230   40.4710 O.2     5  GLY5       -0.2714
    101 N           9.4470    0.1730   39.7560 N.am    6  TRP6       -0.1973
    102 CA          9.3450    0.9380   41.0070 C.3     6  TRP6        0.1637
    103 C           8.1810    1.9070   41.1280 C.2     6  TRP6        0.2290
    104 O           8.0190    2.5140   42.1820 O.2     6  TRP6       -0.2864
    105 CB         10.6300    1.7330   41.2790 C.3     6  TRP6        0.0539
    106 CG         11.7310    0.9840   41.9940 C.2     6  TRP6       -0.0137
    107 CD1        12.0640   -0.3340   41.8490 C.2     6  TRP6        0.0907
    108 CD2        12.6450    1.5250   42.9540 C.3     6  TRP6        0.0819
    109 NE1        13.1240   -0.6460   42.6660 N.2     6  TRP6       -0.2482
    110 CE2        13.5010    0.4770   43.3530 C.2     6  TRP6        0.0665
    111 CE3        12.8260    2.7940   43.5110 C.2     6  TRP6       -0.0164
    112 CZ2        14.5250    0.6600   44.2890 C.2     6  TRP6        0.0153
    113 CZ3        13.8480    2.9750   44.4450 C.2     6  TRP6       -0.0038
    114 CH2        14.6810    1.9130   44.8220 C.2     6  TRP6        0.0009
    115 N           2.4770    1.5180   42.0100 N.3     1  VAL1       -0.1245
    116 CA          1.1810    1.1190   41.5070 C.3     1  VAL1        0.1561
    117 C           0.4450    0.2940   42.5630 C.2     1  VAL1        0.2260
    118 O           1.0740   -0.4140   43.3680 O.2     1  VAL1       -0.2867
    119 CB          1.3710    0.3910   40.1610 C.3     1  VAL1        0.0252
    120 CG2         0.7090   -0.9640   40.1280 C.3     1  VAL1        0.0019
    121 CG1         0.8510    1.2600   39.0660 C.3     1  VAL1        0.0019
    122 N          -6.5350  -12.0560   45.9110 N.3     1  GLU1       -0.1245
    123 CA         -5.3690  -12.9270   46.0090 C.3     1  GLU1        0.1565
    124 C          -4.6760  -12.7800   47.3600 C.2     1  GLU1        0.2260
    125 O          -4.3250  -13.7810   47.9880 O.2     1  GLU1       -0.2867
    126 CB         -4.3880  -12.6470   44.8670 C.3     1  GLU1        0.0329
    127 CG         -5.0070  -12.8440   43.4750 C.3     1  GLU1        0.0437
    128 CD         -3.9860  -12.8870   42.3440 C.2     1  GLU1        0.0504
    129 OE2        -3.2850  -13.9080   42.2190 O.co2   1  GLU1       -0.5492
    130 OE1        -3.9020  -11.9190   41.5630 O.co2   1  GLU1       -0.5492
    131 N           1.8410   -2.0600   46.7230 N.3     1  ARG1       -0.1245
    132 CA          1.2260   -3.3060   46.2930 C.3     1  ARG1        0.1563
    133 C           1.5690   -4.5210   47.1680 C.2     1  ARG1        0.2260
    134 O           0.7490   -5.4100   47.3390 O.2     1  ARG1       -0.2867
    135 CB          1.5150   -3.5530   44.8080 C.3     1  ARG1        0.0307
    136 CG          2.9750   -3.8790   44.4500 C.3     1  ARG1        0.0489
    137 CD          3.2050   -3.8550   42.9290 C.3     1  ARG1        0.2205
    138 NE          3.8000   -2.5790   42.5570 N.pl3   1  ARG1       -0.0865
    139 CZ          4.9150   -2.4390   41.8540 C.cat   1  ARG1        0.5346
    140 NH1         5.5840   -3.5010   41.4030 N.pl3   1  ARG1        0.1354
    141 NH2         5.3920   -1.2220   41.6750 N.pl3   1  ARG1        0.1354
    142 N          10.8410   -4.0140   43.8260 N.3     1  GLU1       -0.1231
    143 CA         10.8340   -4.7420   42.5650 C.3     1  GLU1        0.1697
    144 C          12.0410   -4.2620   41.7610 C.2     1  GLU1        0.2592
    145 O          12.6670   -3.2530   42.1060 O.2     1  GLU1       -0.2718
    146 CB          9.5220   -4.4210   41.8080 C.3     1  GLU1        0.0343
    147 CG          9.4060   -4.9000   40.3630 C.3     1  GLU1        0.0437
    148 CD          9.2790   -6.4140   40.2130 C.2     1  GLU1        0.0504
    149 OE2        10.2190   -7.1390   40.5900 O.co2   1  GLU1       -0.5492
    150 OE1         8.2520   -6.8880   39.6800 O.co2   1  GLU1       -0.5492
    151 N          12.3920   -5.0150   40.7220 N.am    2  ARG2       -0.1980
    152 CA         13.4930   -4.6470   39.8420 C.3     2  ARG2        0.1597
    153 C          13.0880   -3.3500   39.1650 C.2     2  ARG2        0.2287
    154 O          12.0150   -3.2660   38.5780 O.2     2  ARG2       -0.2864
    155 CB         13.7080   -5.7290   38.7760 C.3     2  ARG2        0.0334
    156 CG         14.8590   -5.4610   37.7950 C.3     2  ARG2        0.0492
    157 CD         14.4060   -4.9910   36.4130 C.3     2  ARG2        0.2205
    158 NE         13.6790   -6.0310   35.6850 N.pl3   2  ARG2       -0.0865
    159 CZ         14.0220   -6.5090   34.4910 C.cat   2  ARG2        0.5346
    160 NH1        15.0960   -6.0490   33.8550 N.pl3   2  ARG2        0.1354
    161 NH2        13.2860   -7.4620   33.9370 N.pl3   2  ARG2        0.1354
    162 N          12.7890   -0.7390   36.4050 N.3     1  TYR1       -0.1241
    163 CA         12.7700   -0.9490   34.9570 C.3     1  TYR1        0.1605
    164 C          13.3520    0.1740   34.1050 C.2     1  TYR1        0.2264
    165 O          13.0330    0.2830   32.9260 O.2     1  TYR1       -0.2867
    166 CB         11.3480   -1.2740   34.4760 C.3     1  TYR1        0.0534
    167 CG         11.1310   -2.7020   34.0390 C.ar    1  TYR1       -0.0201
    168 CD1        11.7250   -3.2000   32.8730 C.ar    1  TYR1       -0.0009
    169 CD2        10.2650   -3.5320   34.7430 C.ar    1  TYR1       -0.0009
    170 CE1        11.4500   -4.4920   32.4060 C.ar    1  TYR1        0.0417
    171 CE2         9.9780   -4.8190   34.2920 C.ar    1  TYR1        0.0417
    172 CZ         10.5690   -5.2920   33.1200 C.ar    1  TYR1        0.1957
    173 OH         10.2310   -6.5540   32.6700 O.3     1  TYR1       -0.2866
    174 N           4.1670   -2.6050   26.9980 N.3     1  LYS1       -0.1245
    175 CA          4.9550   -3.8040   26.7430 C.3     1  LYS1        0.1561
    176 C           4.8940   -4.2070   25.2680 C.2     1  LYS1        0.2260
    177 O           5.9230   -4.5380   24.6740 O.2     1  LYS1       -0.2867
    178 CB          4.4870   -4.9710   27.6280 C.3     1  LYS1        0.0271
    179 CG          4.5840   -4.7320   29.1430 C.3     1  LYS1        0.0035
    180 CD          4.2830   -6.0240   29.9080 C.3     1  LYS1        0.0206
    181 CE          3.8570   -5.7700   31.3430 C.3     1  LYS1        0.1093
    182 NZ          3.0630   -6.9300   31.8720 N.3     1  LYS1       -0.1314
    183 N          13.8500   -8.0330   29.5410 N.3     1  ARG1       -0.1231
    184 CA         12.9460   -8.6800   30.4650 C.3     1  ARG1        0.1694
    185 C          13.5110   -9.8070   31.3080 C.2     1  ARG1        0.2591
    186 O          13.2920   -9.8290   32.5180 O.2     1  ARG1       -0.2718
    187 CB         11.7010   -9.1740   29.7220 C.3     1  ARG1        0.0321
    188 CG         10.5460   -8.2070   29.7280 C.3     1  ARG1        0.0489
    189 CD          9.2930   -8.8330   29.1170 C.3     1  ARG1        0.2205
    190 NE          8.9410  -10.1130   29.7320 N.pl3   1  ARG1       -0.0865
    191 CZ          8.9120  -11.2790   29.0830 C.cat   1  ARG1        0.5346
    192 NH1         9.2110  -11.3300   27.7910 N.pl3   1  ARG1        0.1354
    193 NH2         8.6160  -12.4030   29.7310 N.pl3   1  ARG1        0.1354
    194 N          14.2270  -10.7420   30.6910 N.am    2  ARG2       -0.1980
    195 CA         14.7330  -11.8910   31.4400 C.3     2  ARG2        0.1597
    196 C          16.2250  -12.1900   31.4110 C.2     2  ARG2        0.2287
    197 O          16.6310  -13.3550   31.4790 O.2     2  ARG2       -0.2864
    198 CB         13.9460  -13.1610   31.0680 C.3     2  ARG2        0.0334
    199 CG         12.4370  -13.0970   31.3510 C.3     2  ARG2        0.0492
    200 CD         12.1320  -12.6720   32.7870 C.3     2  ARG2        0.2205
    201 NE         11.7440  -13.7770   33.6600 N.pl3   2  ARG2       -0.0865
    202 CZ         10.6250  -13.7890   34.3800 C.cat   2  ARG2        0.5346
    203 NH1         9.7960  -12.7530   34.3110 N.pl3   2  ARG2        0.1354
    204 NH2        10.3390  -14.8180   35.1750 N.pl3   2  ARG2        0.1354
    205 N           6.8020   -9.4260   49.0640 N.3     1  ALA1       -0.1231
    206 CA          7.5840   -8.7010   48.0980 C.3     1  ALA1        0.1694
    207 C           7.1260   -8.8740   46.6680 C.2     1  ALA1        0.2592
    208 O           6.0110   -9.3050   46.3950 O.2     1  ALA1       -0.2718
    209 CB          9.0600   -9.0630   48.2510 C.3     1  ALA1        0.0304
    210 N           8.0330   -8.5420   45.7680 N.am    2  HIS2       -0.1962
    211 CA          7.8120   -8.5770   44.3480 C.3     2  HIS2        0.1784
    212 C           8.4710   -9.7720   43.6810 C.2     2  HIS2        0.2621
    213 O           9.3000  -10.4450   44.2980 O.2     2  HIS2       -0.2715
    214 CB          8.3020   -7.2590   43.7890 C.3     2  HIS2        0.0745
    215 CG          7.8190   -6.0760   44.5760 C.2     2  HIS2        0.0653
    216 ND1         6.6860   -5.3710   44.2400 N.2     2  HIS2       -0.2310
    217 CD2         8.3040   -5.4920   45.6990 C.3     2  HIS2        0.1683
    218 CE1         6.4950   -4.4040   45.1200 C.2     2  HIS2        0.1939
    219 NE2         7.4630   -4.4540   46.0140 N.2     2  HIS2       -0.2440
    220 N           8.0510  -10.0530   42.4410 N.am    3  GLY3       -0.1940
    221 CA          8.5560  -11.1880   41.6820 C.3     3  GLY3        0.2014
    222 C          10.0560  -11.3000   41.4950 C.2     3  GLY3        0.2639
    223 O          10.6310  -12.3690   41.7280 O.2     3  GLY3       -0.2714
    224 N          10.6970  -10.2150   41.0580 N.am    4  ASN4       -0.1958
    225 CA         12.1480  -10.2270   40.8410 C.3     4  ASN4        0.1819
    226 C          12.9370  -10.4390   42.1160 C.2     4  ASN4        0.2622
    227 O          13.6880  -11.4080   42.2170 O.2     4  ASN4       -0.2715
    228 CB         12.6220   -8.9570   40.1260 C.3     4  ASN4        0.1195
    229 CG         12.3470   -8.9950   38.6360 C.2     4  ASN4        0.2630
    230 OD1        12.9690   -9.7650   37.9070 O.2     4  ASN4       -0.2716
    231 ND2        11.4020   -8.1720   38.1760 N.am    4  ASN4       -0.0877
    232 N          12.7590   -9.5460   43.0880 N.am    5  SER5       -0.1950
    233 CA         13.4540   -9.6370   44.3750 C.3     5  SER5        0.1924
    234 CB         13.2590  -11.0020   45.0470 C.2     5  SER5        0.2314
    235 OG         14.1930  -11.5380   45.6290 O.2     5  SER5       -0.2863
    236 C          13.0040   -8.5070   45.3130 C.3     5  SER5        0.2116
    237 O          11.6110   -8.5390   45.5710 O.3     5  SER5       -0.2180
    238 N          12.5690  -13.9010   43.4490 N.3     1  ARG1       -0.1245
    239 CA         13.2780  -14.9030   42.6560 C.3     1  ARG1        0.1563
    240 C          14.7720  -14.7220   42.9310 C.2     1  ARG1        0.2260
    241 O          15.5350  -15.6950   42.9440 O.2     1  ARG1       -0.2867
    242 CB         13.0040  -14.7390   41.1610 C.3     1  ARG1        0.0307
    243 CG         11.7140  -15.3690   40.6580 C.3     1  ARG1        0.0489
    244 CD         11.7120  -15.3870   39.1300 C.3     1  ARG1        0.2205
    245 NE         11.8530  -14.0450   38.5840 N.pl3   1  ARG1       -0.0865
    246 CZ         12.7910  -13.6770   37.7220 C.cat   1  ARG1        0.5346
    247 NH1        13.6890  -14.5560   37.2880 N.pl3   1  ARG1        0.1354
    248 NH2        12.8420  -12.4150   37.3120 N.pl3   1  ARG1        0.1354
    249 N          12.5420  -19.5620   36.2260 N.3     1  LEU1       -0.1231
    250 CA         11.7890  -19.7560   37.4680 C.3     1  LEU1        0.1693
    251 C          10.6430  -18.7530   37.6020 C.2     1  LEU1        0.2592
    252 O          10.7830  -17.5640   37.2800 O.2     1  LEU1       -0.2718
    253 CB         12.6770  -19.6410   38.7130 C.3     1  LEU1        0.0284
    254 CG         11.9380  -19.7260   40.0690 C.3     1  LEU1        0.0019
    255 CD1        11.7780  -21.1850   40.5480 C.3     1  LEU1        0.0001
    256 CD2        12.6950  -18.9010   41.1010 C.3     1  LEU1        0.0001
    257 N           9.5200  -19.2340   38.1210 N.am    2  ASN2       -0.1960
    258 CA          8.3740  -18.3700   38.3050 C.3     2  ASN2        0.1819
    259 C           7.7280  -18.5550   39.6610 C.2     2  ASN2        0.2621
    260 O           7.5210  -19.6840   40.1280 O.2     2  ASN2       -0.2715
    261 CB          7.3450  -18.6030   37.2060 C.3     2  ASN2        0.1195
    262 CG          6.2180  -17.6050   37.2600 C.2     2  ASN2        0.2630
    263 OD1         5.1420  -17.9000   37.7860 O.2     2  ASN2       -0.2716
    264 ND2         6.4580  -16.4090   36.7250 N.am    2  ASN2       -0.0877
    265 N           7.4290  -17.4300   40.2980 N.am    3  ILE3       -0.1964
    266 CA          6.7890  -17.4460   41.5990 C.3     3  ILE3        0.1712
    267 C           5.3210  -17.0330   41.4560 C.2     3  ILE3        0.2458
    268 O           5.0030  -15.9360   40.9650 O.2     3  ILE3       -0.2730
    269 CB          7.5410  -16.5430   42.6100 C.3     3  ILE3        0.0289
    270 CG1         8.9880  -17.0380   42.7600 C.3     3  ILE3        0.0022
    271 CG2         6.8380  -16.5670   43.9840 C.3     3  ILE3        0.0023
    272 CD1         9.8010  -16.2640   43.7490 C.3     3  ILE3        0.0001
    273 N           4.4050  -17.9550   41.8020 N.am    4  PRO4       -0.2716
    274 CA          2.9620  -17.7310   41.7290 C.3     4  PRO4        0.1536
    275 C           2.5390  -16.5810   42.6480 C.2     4  PRO4        0.2599
    276 O           2.9260  -16.5380   43.8230 O.2     4  PRO4       -0.2715
    277 CB          2.3930  -19.0600   42.2410 C.3     4  PRO4        0.0310
    278 CG          3.4230  -20.0470   41.8650 C.3     4  PRO4        0.0237
    279 CD          4.6910  -19.3340   42.2280 C.3     4  PRO4        0.0939
    280 N           1.7550  -15.6510   42.1130 N.am    5  THR5       -0.1951
    281 CA          1.2570  -14.5300   42.8970 C.3     5  THR5        0.1897
    282 C           0.2510  -15.0550   43.9450 C.2     5  THR5        0.2313
    283 O          -0.5020  -15.9960   43.6650 O.2     5  THR5       -0.2863
    284 CB          0.5070  -13.5190   41.9950 C.3     5  THR5        0.1794
    285 OG1        -0.6190  -14.1720   41.4040 O.3     5  THR5       -0.2208
    286 CG2         1.3870  -13.0120   40.8860 C.3     5  THR5        0.0378
@<TRIPOS>UNITY_ATOM_ATTR
129 1
charge -1
149 1
charge -1
@<TRIPOS>BOND
     1     1     2    1
     2     2     5    1
     3     2     3    1
     4     3     4    2
     5     3    12   am
     6     5     6    1
     7     6     7    1
     8     7     8    1
     9     8     9    2
    10     9    11    1
    11     9    10    1
    12    12    13    1
    13    13    14    1
    14    13    16    1
    15    14    15    2
    16    14    22   am
    17    16    17    1
    18    17    18    2
    19    17    19    1
    20    18    20    1
    21    19    21    1
    22    20    21    2
    23    22    23    1
    24    23    24    1
    25    24    26   am
    26    24    25    2
    27    26    27    1
    28    27    30    1
    29    27    28    1
    30    28    35   am
    31    28    29    2
    32    30    31    1
    33    31    32    1
    34    32    33    2
    35    32    34   am
    36    35    36    1
    37    36    37    1
    38    36    39    1
    39    37    38    2
    40    39    40    1
    41    41    42    1
    42    42    43    1
    43    42    45    1
    44    43    44    2
    45    43    55   am
    46    45    46    1
    47    46    48    2
    48    46    47    1
    49    47    49    1
    50    48    51   ar
    51    48    50   ar
    52    49    50    2
    53    50    52   ar
    54    51    53   ar
    55    52    54   ar
    56    53    54   ar
    57    55    56    1
    58    56    57    1
    59    56    59    1
    60    57    58    2
    61    59    60    1
    62    60    61    2
    63    60    62   am
    64    63    64    1
    65    64    67    1
    66    64    65    1
    67    65    66    2
    68    65    71   am
    69    67    68    1
    70    68    69    2
    71    68    70   am
    72    71    72    1
    73    72    75    1
    74    72    73    1
    75    73    79   am
    76    73    74    2
    77    75    76    1
    78    76    78    1
    79    76    77    1
    80    79    80    1
    81    80    83    1
    82    80    81    1
    83    81    82    2
    84    81    90   am
    85    83    84    1
    86    84    86   ar
    87    84    85   ar
    88    85    87   ar
    89    86    88   ar
    90    87    89   ar
    91    88    89   ar
    92    90    91    1
    93    91    92    1
    94    91    94    1
    95    92    93    2
    96    92    97   am
    97    94    95    1
    98    94    96    1
    99    97    98    1
   100    98    99    1
   101    99   101   am
   102    99   100    2
   103   101   102    1
   104   102   103    1
   105   102   105    1
   106   103   104    2
   107   105   106    1
   108   106   107    2
   109   106   108    1
   110   107   109    1
   111   108   110    1
   112   108   111    1
   113   109   110    2
   114   110   112    1
   115   111   113    2
   116   112   114    2
   117   113   114    1
   118   115   116    1
   119   116   119    1
   120   116   117    1
   121   117   118    2
   122   119   121    1
   123   119   120    1
   124   122   123    1
   125   123   126    1
   126   123   124    1
   127   124   125    2
   128   126   127    1
   129   127   128    1
   130   128   130   ar
   131   128   129   ar
   132   131   132    1
   133   132   135    1
   134   132   133    1
   135   133   134    2
   136   135   136    1
   137   136   137    1
   138   137   138    1
   139   138   139    2
   140   139   140    1
   141   139   141    1
   142   142   143    1
   143   143   144    1
   144   143   146    1
   145   144   151   am
   146   144   145    2
   147   146   147    1
   148   147   148    1
   149   148   150   ar
   150   148   149   ar
   151   151   152    1
   152   152   155    1
   153   152   153    1
   154   153   154    2
   155   155   156    1
   156   156   157    1
   157   157   158    1
   158   158   159    2
   159   159   160    1
   160   159   161    1
   161   162   163    1
   162   163   164    1
   163   163   166    1
   164   164   165    2
   165   166   167    1
   166   167   168   ar
   167   167   169   ar
   168   168   170   ar
   169   169   171   ar
   170   170   172   ar
   171   171   172   ar
   172   172   173    1
   173   174   175    1
   174   175   176    1
   175   175   178    1
   176   176   177    2
   177   178   179    1
   178   179   180    1
   179   180   181    1
   180   181   182    1
   181   183   184    1
   182   184   187    1
   183   184   185    1
   184   185   194   am
   185   185   186    2
   186   187   188    1
   187   188   189    1
   188   189   190    1
   189   190   191    2
   190   191   192    1
   191   191   193    1
   192   194   195    1
   193   195   198    1
   194   195   196    1
   195   196   197    2
   196   198   199    1
   197   199   200    1
   198   200   201    1
   199   201   202    2
   200   202   203    1
   201   202   204    1
   202   205   206    1
   203   206   207    1
   204   206   209    1
   205   207   210   am
   206   207   208    2
   207   210   211    1
   208   211   212    1
   209   211   214    1
   210   212   220   am
   211   212   213    2
   212   214   215    1
   213   215   216    2
   214   215   217    1
   215   216   218    1
   216   217   219    1
   217   218   219    2
   218   220   221    1
   219   221   222    1
   220   222   224   am
   221   222   223    2
   222   224   225    1
   223   225   228    1
   224   225   226    1
   225   226   227    2
   226   226   232   am
   227   228   229    1
   228   229   230    2
   229   229   231   am
   230   232   233    1
   231   233   234    1
   232   233   236    1
   233   234   235    2
   234   236   237    1
   235   238   239    1
   236   239   242    1
   237   239   240    1
   238   240   241    2
   239   242   243    1
   240   243   244    1
   241   244   245    1
   242   245   246    2
   243   246   247    1
   244   246   248    1
   245   249   250    1
   246   250   251    1
   247   250   253    1
   248   251   252    2
   249   251   257   am
   250   253   254    1
   251   254   255    1
   252   254   256    1
   253   257   258    1
   254   258   261    1
   255   258   259    1
   256   259   260    2
   257   259   265   am
   258   261   262    1
   259   262   264   am
   260   262   263    2
   261   265   266    1
   262   266   267    1
   263   266   269    1
   264   267   268    2
   265   267   273   am
   266   269   270    1
   267   269   271    1
   268   270   272    1
   269   273   274    1
   270   273   279    1
   271   274   277    1
   272   274   275    1
   273   275   280   am
   274   275   276    2
   275   277   278    1
   276   278   279    1
   277   280   281    1
   278   281   284    1
   279   281   282    1
   280   282   283    2
   281   284   286    1
   282   284   285    1
