@<TRIPOS>MOLECULE
./1htf/protein.pdb
 169 165 0 0 0
SMALL
GASTEIGER

@<TRIPOS>ATOM
      1 N          40.0410    8.1140   -3.7340 N.3     1  PRO1       -0.2102
      2 CA         40.3720    8.2210   -2.2880 C.3     1  PRO1        0.1504
      3 C          39.9210    7.0510   -1.3590 C.2     1  PRO1        0.2576
      4 O          39.2040    6.1300   -1.7170 O.2     1  PRO1       -0.2718
      5 CB         39.6940    9.5080   -1.7890 C.3     1  PRO1        0.0282
      6 CG         39.0320   10.1320   -3.0000 C.3     1  PRO1        0.0208
      7 CD         38.8520    8.9560   -3.9430 C.3     1  PRO1        0.0893
      8 N          40.3530    7.1790   -0.0930 N.am    2  GLN2       -0.1966
      9 CA         39.9100    6.3100    1.0030 C.3     2  GLN2        0.1733
     10 C          38.7960    6.9030    1.8560 C.2     2  GLN2        0.2616
     11 O          38.9380    7.8530    2.5960 O.2     2  GLN2       -0.2715
     12 CB         41.1090    5.9460    1.8700 C.3     2  GLN2        0.0408
     13 CG         40.9250    4.6170    2.6220 C.3     2  GLN2        0.0908
     14 CD         41.7690    4.5060    3.9010 C.2     2  GLN2        0.2608
     15 OE1        42.8300    5.0520    4.1360 O.2     2  GLN2       -0.2717
     16 NE2        41.2330    3.7820    4.8360 N.am    2  GLN2       -0.0878
     17 N          37.6390    6.2950    1.7020 N.am    3  ILE3       -0.1963
     18 CA         36.4850    6.6860    2.5060 C.3     3  ILE3        0.1727
     19 C          36.1760    5.7020    3.6690 C.2     3  ILE3        0.2617
     20 O          36.1110    4.4780    3.5450 O.2     3  ILE3       -0.2715
     21 CB         35.2630    6.8740    1.5660 C.3     3  ILE3        0.0290
     22 CG1        35.5700    7.8220    0.4170 C.3     3  ILE3        0.0022
     23 CG2        34.0730    7.4160    2.3140 C.3     3  ILE3        0.0023
     24 CD1        34.3710    8.2130   -0.4630 C.3     3  ILE3        0.0001
     25 N          36.0170    6.3000    4.8510 N.am    4  THR4       -0.1937
     26 CA         35.5710    5.5750    6.0720 C.3     4  THR4        0.2028
     27 C          34.0870    5.7290    6.2850 C.2     4  THR4        0.2642
     28 O          33.4910    6.6220    5.7340 O.2     4  THR4       -0.2714
     29 CB         36.2480    6.0820    7.3670 C.3     4  THR4        0.1808
     30 OG1        35.7750    7.4080    7.6560 O.3     4  THR4       -0.2208
     31 CG2        37.7770    6.0240    7.2670 C.3     4  THR4        0.0379
     32 N          33.4850    4.8370    7.0360 N.am    5  LEU5       -0.1977
     33 CA         32.0410    4.8120    6.9860 C.3     5  LEU5        0.1596
     34 C          31.3610    5.2780    8.2450 C.2     5  LEU5        0.2287
     35 O          30.2200    4.9280    8.4830 O.2     5  LEU5       -0.2864
     36 CB         31.5860    3.3920    6.6180 C.3     5  LEU5        0.0297
     37 CG         32.1020    2.9520    5.2520 C.3     5  LEU5        0.0022
     38 CD2        31.8610    1.4580    5.0510 C.3     5  LEU5        0.0001
     39 CD1        31.4540    3.8180    4.1500 C.3     5  LEU5        0.0001
     40 N          28.7890    7.7980    3.1080 N.3     1  PRO1       -0.2102
     41 CA         29.7170    8.1250    1.9930 C.3     1  PRO1        0.1504
     42 C          29.0140    8.8540    0.8310 C.2     1  PRO1        0.2576
     43 O          28.6740    8.3010   -0.2000 O.2     1  PRO1       -0.2718
     44 CB         30.2790    6.7590    1.6200 C.3     1  PRO1        0.0282
     45 CG         29.0390    5.8960    1.7520 C.3     1  PRO1        0.0208
     46 CD         28.4250    6.3990    3.0700 C.3     1  PRO1        0.0893
     47 N          28.7950   10.1360    1.0870 N.am    2  LEU2       -0.1966
     48 CA         28.2550   11.1180    0.1440 C.3     2  LEU2        0.1728
     49 C          29.3030   11.7440   -0.8010 C.2     2  LEU2        0.2616
     50 O          30.3750   12.2180   -0.4650 O.2     2  LEU2       -0.2715
     51 CB         27.6680   12.2530    0.9630 C.3     2  LEU2        0.0311
     52 CG         26.1710   12.3560    1.0060 C.3     2  LEU2        0.0022
     53 CD1        25.4480   11.0590    0.7980 C.3     2  LEU2        0.0001
     54 CD2        25.7850   12.8900    2.3630 C.3     2  LEU2        0.0001
     55 N          28.9790   11.7470   -2.0470 N.am    3  VAL3       -0.1977
     56 CA         29.9670   12.3850   -2.8970 C.3     3  VAL3        0.1596
     57 C          29.3230   13.3950   -3.8460 C.2     3  VAL3        0.2287
     58 O          28.1200   13.4340   -4.0870 O.2     3  VAL3       -0.2864
     59 CB         30.6470   11.1920   -3.5600 C.3     3  VAL3        0.0276
     60 CG1        29.8200   10.6400   -4.7210 C.3     3  VAL3        0.0022
     61 CG2        32.0840   11.4680   -3.8680 C.3     3  VAL3        0.0022
     62 N          24.9010    9.1550   -2.6870 N.3     1  LEU1       -0.1231
     63 CA         25.4600    8.1520   -1.7820 C.3     1  LEU1        0.1693
     64 C          26.2120    7.0360   -2.4980 C.2     1  LEU1        0.2592
     65 O          25.6310    6.3980   -3.3580 O.2     1  LEU1       -0.2718
     66 CB         24.2310    7.6080   -1.0210 C.3     1  LEU1        0.0284
     67 CG         24.3660    6.4760    0.0550 C.3     1  LEU1        0.0019
     68 CD2        25.3250    6.8340    1.2100 C.3     1  LEU1        0.0001
     69 CD1        23.0120    6.1740    0.6750 C.3     1  LEU1        0.0001
     70 N          27.4890    6.7790   -2.1820 N.am    2  LEU2       -0.1966
     71 CA         28.0440    5.5510   -2.7300 C.3     2  LEU2        0.1728
     72 C          27.4810    4.2730   -2.0910 C.2     2  LEU2        0.2616
     73 O          27.4860    4.0530   -0.8900 O.2     2  LEU2       -0.2715
     74 CB         29.5440    5.5430   -2.6390 C.3     2  LEU2        0.0311
     75 CG         30.1940    6.7930   -3.2340 C.3     2  LEU2        0.0022
     76 CD2        31.6700    6.6200   -3.0600 C.3     2  LEU2        0.0001
     77 CD1        29.9490    7.0040   -4.7160 C.3     2  LEU2        0.0001
     78 N          26.9110    3.4220   -2.9270 N.am    3  ASP3       -0.1959
     79 CA         26.1400    2.3710   -2.3020 C.3     3  ASP3        0.1783
     80 C          26.4300    0.9760   -2.8270 C.2     3  ASP3        0.2621
     81 O          25.8140    0.4810   -3.7510 O.2     3  ASP3       -0.2715
     82 CB         24.7070    2.8310   -2.4780 C.3     3  ASP3        0.0728
     83 CG         23.6670    1.9490   -1.7940 C.2     3  ASP3        0.0526
     84 OD2        23.9770    0.8710   -1.2930 O.co2   3  ASP3       -0.5491
     85 OD1        22.5300    2.3730   -1.7710 O.co2   3  ASP3       -0.5491
     86 N          27.3540    0.2620   -2.1890 N.am    4  THR4       -0.1937
     87 CA         27.5890   -1.1500   -2.5850 C.3     4  THR4        0.2028
     88 C          26.4320   -2.1320   -2.5330 C.2     4  THR4        0.2642
     89 O          26.4330   -3.2080   -3.1050 O.2     4  THR4       -0.2714
     90 CB         28.7350   -1.7370   -1.7450 C.3     4  THR4        0.1808
     91 OG1        28.3800   -1.6640   -0.3500 O.3     4  THR4       -0.2208
     92 CG2        30.0630   -0.9690   -1.9310 C.3     4  THR4        0.0379
     93 N          25.3860   -1.7650   -1.7950 N.am    5  GLY5       -0.1954
     94 CA         24.2250   -2.6450   -1.7480 C.3     5  GLY5        0.1869
     95 C          23.1390   -2.3940   -2.7390 C.2     5  GLY5        0.2309
     96 O          22.1200   -3.0250   -2.7050 O.2     5  GLY5       -0.2863
     97 N          31.6780   11.4870  -11.1220 N.3     1  ILE1       -0.1231
     98 CA         31.5770   11.1230   -9.6960 C.3     1  ILE1        0.1692
     99 C          32.8350   11.4700   -8.9660 C.2     1  ILE1        0.2592
    100 O          33.8910   10.9220   -9.2100 O.2     1  ILE1       -0.2718
    101 CB         31.3400    9.6070   -9.5420 C.3     1  ILE1        0.0266
    102 CG1        30.0990    9.1030  -10.2920 C.3     1  ILE1        0.0019
    103 CG2        31.2420    9.2150   -8.0670 C.3     1  ILE1        0.0020
    104 CD1        30.0730    7.6490  -10.7250 C.3     1  ILE1        0.0001
    105 N          32.7480   12.4510   -8.0980 N.am    2  CYS2       -0.1970
    106 CA         34.0130   12.9290   -7.5270 C.3     2  CYS2        0.1712
    107 C          35.1800   13.0840   -8.5280 C.2     2  CYS2        0.2296
    108 O          36.2490   12.4980   -8.4260 O.2     2  CYS2       -0.2864
    109 CB         34.4520   12.0200   -6.3680 C.3     2  CYS2        0.0983
    110 SG         35.3640   12.9070   -5.0570 S.3     2  CYS2       -0.0798
    111 N          35.6720   11.7820  -11.3600 N.3     1  HIS1       -0.1241
    112 CA         35.8330   10.6870  -12.3020 C.3     1  HIS1        0.1621
    113 C          34.6640   10.6510  -13.2410 C.2     1  HIS1        0.2264
    114 O          33.5300   10.6200  -12.7960 O.2     1  HIS1       -0.2867
    115 CB         35.7820    9.3640  -11.5380 C.3     1  HIS1        0.0745
    116 CG         36.9200    9.2490  -10.5700 C.ar    1  HIS1        0.0817
    117 ND1        37.2350   10.1670   -9.6440 N.ar    1  HIS1       -0.2268
    118 CD2        37.8570    8.2170  -10.5130 C.ar    1  HIS1        0.1154
    119 CE1        38.3620    9.7560   -9.0020 C.ar    1  HIS1        0.1986
    120 NE2        38.7390    8.5590   -9.5390 N.ar    1  HIS1       -0.2212
    121 N          30.1160    2.1700   -9.8290 N.3     1  LEU1       -0.1245
    122 CA         31.2830    1.9330   -8.9440 C.3     1  LEU1        0.1561
    123 C          32.4150    1.0960   -9.5320 C.2     1  LEU1        0.2260
    124 O          33.6070    1.3240   -9.3720 O.2     1  LEU1       -0.2867
    125 CB         30.8560    1.2790   -7.5830 C.3     1  LEU1        0.0270
    126 CG         29.9460    2.1750   -6.7380 C.3     1  LEU1        0.0019
    127 CD2        29.4000    1.4210   -5.5370 C.3     1  LEU1        0.0001
    128 CD1        30.7000    3.4580   -6.3510 C.3     1  LEU1        0.0001
    129 N          34.4460    3.5480  -11.9350 N.3     1  ILE1       -0.1231
    130 CA         35.4810    4.3580  -11.2650 C.3     1  ILE1        0.1692
    131 C          36.5340    3.6290  -10.3680 C.2     1  ILE1        0.2593
    132 O          37.3090    4.1850   -9.6040 O.2     1  ILE1       -0.2718
    133 CB         34.7530    5.4840  -10.5130 C.3     1  ILE1        0.0266
    134 CG1        33.8520    4.9930   -9.3660 C.3     1  ILE1        0.0019
    135 CG2        33.9470    6.3590  -11.4890 C.3     1  ILE1        0.0020
    136 CD1        33.8060    6.0040   -8.2260 C.3     1  ILE1        0.0001
    137 N          36.5410    2.2970  -10.5020 N.am    2  GLY2       -0.1942
    138 CA         37.5870    1.5260   -9.8260 C.3     2  GLY2        0.2014
    139 C          37.4080    1.3450   -8.3200 C.2     2  GLY2        0.2639
    140 O          38.3320    1.2220   -7.5320 O.2     2  GLY2       -0.2714
    141 N          36.1470    1.3310   -7.9370 N.am    3  CYS3       -0.1953
    142 CA         35.8800    1.3830   -6.4990 C.3     3  CYS3        0.1843
    143 C          35.9260    0.0530   -5.8020 C.2     3  CYS3        0.2626
    144 O          35.2370   -0.8630   -6.2140 O.2     3  CYS3       -0.2714
    145 CB         34.4910    1.9660   -6.3620 C.3     3  CYS3        0.0997
    146 SG         33.9590    2.4720   -4.7390 S.3     3  CYS3       -0.0797
    147 N          36.7480   -0.0660   -4.7550 N.am    4  THR4       -0.1936
    148 CA         36.7110   -1.3080   -3.9190 C.3     4  THR4        0.2028
    149 C          36.2500   -1.1760   -2.4530 C.2     4  THR4        0.2642
    150 O          36.3620   -0.1620   -1.7690 O.2     4  THR4       -0.2714
    151 CB         38.0390   -2.1070   -3.9480 C.3     4  THR4        0.1808
    152 OG1        39.0930   -1.2940   -3.4390 O.3     4  THR4       -0.2208
    153 CG2        38.4270   -2.5460   -5.3430 C.3     4  THR4        0.0379
    154 N          35.7170   -2.2840   -1.9670 N.am    5  LEU5       -0.1963
    155 CA         35.6770   -2.4370   -0.4950 C.3     5  LEU5        0.1728
    156 C          36.9320   -3.1100    0.0540 C.2     5  LEU5        0.2616
    157 O          37.5450   -3.9860   -0.5410 O.2     5  LEU5       -0.2715
    158 CB         34.5530   -3.3450   -0.0280 C.3     5  LEU5        0.0311
    159 CG         33.1790   -2.7850   -0.1350 C.3     5  LEU5        0.0022
    160 CD1        32.1690   -3.8870    0.1270 C.3     5  LEU5        0.0001
    161 CD2        33.0530   -1.6720    0.8700 C.3     5  LEU5        0.0001
    162 N          37.2660   -2.6330    1.2500 N.am    6  ASN6       -0.1972
    163 CA         38.4650   -3.1190    1.9570 C.3     6  ASN6        0.1688
    164 C          38.2810   -3.2400    3.4650 C.2     6  ASN6        0.2292
    165 O          37.8320   -2.3230    4.1310 O.2     6  ASN6       -0.2864
    166 CB         39.6550   -2.1930    1.7570 C.3     6  ASN6        0.1181
    167 CG         39.5770   -1.6500    0.3600 C.2     6  ASN6        0.2629
    168 OD1        39.8810   -2.2670   -0.6450 O.2     6  ASN6       -0.2716
    169 ND2        39.0510   -0.4490    0.2940 N.am    6  ASN6       -0.0877
@<TRIPOS>UNITY_ATOM_ATTR
84 1
charge -1
@<TRIPOS>BOND
     1     1     7    1
     2     1     2    1
     3     2     5    1
     4     2     3    1
     5     3     4    2
     6     3     8   am
     7     5     6    1
     8     6     7    1
     9     8     9    1
    10     9    10    1
    11     9    12    1
    12    10    17   am
    13    10    11    2
    14    12    13    1
    15    13    14    1
    16    14    15    2
    17    14    16   am
    18    17    18    1
    19    18    21    1
    20    18    19    1
    21    19    20    2
    22    19    25   am
    23    21    22    1
    24    21    23    1
    25    22    24    1
    26    25    26    1
    27    26    27    1
    28    26    29    1
    29    27    28    2
    30    27    32   am
    31    29    31    1
    32    29    30    1
    33    32    33    1
    34    33    36    1
    35    33    34    1
    36    34    35    2
    37    36    37    1
    38    37    39    1
    39    37    38    1
    40    40    41    1
    41    40    46    1
    42    41    42    1
    43    41    44    1
    44    42    43    2
    45    42    47   am
    46    44    45    1
    47    45    46    1
    48    47    48    1
    49    48    49    1
    50    48    51    1
    51    49    55   am
    52    49    50    2
    53    51    52    1
    54    52    53    1
    55    52    54    1
    56    55    56    1
    57    56    57    1
    58    56    59    1
    59    57    58    2
    60    59    60    1
    61    59    61    1
    62    62    63    1
    63    63    64    1
    64    63    66    1
    65    64    65    2
    66    64    70   am
    67    66    67    1
    68    67    69    1
    69    67    68    1
    70    70    71    1
    71    71    74    1
    72    71    72    1
    73    72    78   am
    74    72    73    2
    75    74    75    1
    76    75    77    1
    77    75    76    1
    78    78    79    1
    79    79    80    1
    80    79    82    1
    81    80    81    2
    82    80    86   am
    83    82    83    1
    84    83    85   ar
    85    83    84   ar
    86    86    87    1
    87    87    88    1
    88    87    90    1
    89    88    89    2
    90    88    93   am
    91    90    92    1
    92    90    91    1
    93    93    94    1
    94    94    95    1
    95    95    96    2
    96    97    98    1
    97    98   101    1
    98    98    99    1
    99    99   100    2
   100    99   105   am
   101   101   102    1
   102   101   103    1
   103   102   104    1
   104   105   106    1
   105   106   107    1
   106   106   109    1
   107   107   108    2
   108   109   110    1
   109   111   112    1
   110   112   113    1
   111   112   115    1
   112   113   114    2
   113   115   116    1
   114   116   118   ar
   115   116   117   ar
   116   117   119   ar
   117   118   120   ar
   118   119   120   ar
   119   121   122    1
   120   122   123    1
   121   122   125    1
   122   123   124    2
   123   125   126    1
   124   126   128    1
   125   126   127    1
   126   129   130    1
   127   130   133    1
   128   130   131    1
   129   131   137   am
   130   131   132    2
   131   133   135    1
   132   133   134    1
   133   134   136    1
   134   137   138    1
   135   138   139    1
   136   139   141   am
   137   139   140    2
   138   141   142    1
   139   142   145    1
   140   142   143    1
   141   143   144    2
   142   143   147   am
   143   145   146    1
   144   147   148    1
   145   148   151    1
   146   148   149    1
   147   149   154   am
   148   149   150    2
   149   151   153    1
   150   151   152    1
   151   154   155    1
   152   155   158    1
   153   155   156    1
   154   156   157    2
   155   156   162   am
   156   158   159    1
   157   159   160    1
   158   159   161    1
   159   162   163    1
   160   163   166    1
   161   163   164    1
   162   164   165    2
   163   166   167    1
   164   167   168    2
   165   167   169   am
