@<TRIPOS>MOLECULE
./1htf/protein.pdb
 179 176 0 0 0
SMALL
GASTEIGER

@<TRIPOS>ATOM
      1 N          24.9010    9.1550   -2.6870 N.3     1  LEU1       -0.1245
      2 CA         25.4600    8.1520   -1.7820 C.3     1  LEU1        0.1561
      3 C          26.2120    7.0360   -2.4980 C.2     1  LEU1        0.2260
      4 O          25.6310    6.3980   -3.3580 O.2     1  LEU1       -0.2867
      5 CB         24.2310    7.6080   -1.0210 C.3     1  LEU1        0.0270
      6 CG         24.3660    6.4760    0.0550 C.3     1  LEU1        0.0019
      7 CD2        25.3250    6.8340    1.2100 C.3     1  LEU1        0.0001
      8 CD1        23.0120    6.1740    0.6750 C.3     1  LEU1        0.0001
      9 N          26.9110    3.4220   -2.9270 N.3     1  ASP1       -0.1241
     10 CA         26.1400    2.3710   -2.3020 C.3     1  ASP1        0.1616
     11 C          26.4300    0.9760   -2.8270 C.2     1  ASP1        0.2264
     12 O          25.8140    0.4810   -3.7510 O.2     1  ASP1       -0.2867
     13 CB         24.7070    2.8310   -2.4780 C.3     1  ASP1        0.0687
     14 CG         23.6670    1.9490   -1.7940 C.2     1  ASP1        0.0522
     15 OD2        23.9770    0.8710   -1.2930 O.co2   1  ASP1       -0.5491
     16 OD1        22.5300    2.3730   -1.7710 O.co2   1  ASP1       -0.5491
     17 N          25.3860   -1.7650   -1.7950 N.3     1  GLY1       -0.1210
     18 CA         24.2250   -2.6450   -1.7480 C.3     1  GLY1        0.1956
     19 C          23.1390   -2.3940   -2.7390 C.2     1  GLY1        0.2612
     20 O          22.1200   -3.0250   -2.7050 O.2     1  GLY1       -0.2717
     21 N          23.3840   -1.4530   -3.6400 N.am    2  ALA2       -0.1965
     22 CA         22.5220   -1.1910   -4.8140 C.3     2  ALA2        0.1728
     23 C          23.1680   -1.6970   -6.1440 C.2     2  ALA2        0.2616
     24 O          24.3200   -1.4710   -6.4910 O.2     2  ALA2       -0.2715
     25 CB         22.2440    0.3270   -4.9030 C.3     2  ALA2        0.0334
     26 N          22.4280   -2.4710   -6.9050 N.am    3  ASP3       -0.1959
     27 CA         23.0130   -2.8990   -8.1930 C.3     3  ASP3        0.1783
     28 C          22.9650   -1.7910   -9.2110 C.2     3  ASP3        0.2620
     29 O          23.7970   -1.6620  -10.0890 O.2     3  ASP3       -0.2715
     30 CB         22.2200   -4.0320   -8.8240 C.3     3  ASP3        0.0728
     31 CG         22.0410   -5.1700   -7.8230 C.2     3  ASP3        0.0526
     32 OD2        22.9850   -5.5570   -7.1080 O.co2   3  ASP3       -0.5491
     33 OD1        20.9210   -5.6650   -7.7540 O.co2   3  ASP3       -0.5491
     34 N          21.9670   -0.9350   -9.0200 N.am    4  ASP4       -0.1959
     35 CA         21.7790    0.2170   -9.8990 C.3     4  ASP4        0.1783
     36 C          21.9180    1.5760   -9.2810 C.2     4  ASP4        0.2621
     37 O          21.8910    1.8260   -8.0890 O.2     4  ASP4       -0.2715
     38 CB         20.4000    0.2370  -10.5140 C.3     4  ASP4        0.0728
     39 CG         20.1020   -1.0920  -11.1590 C.2     4  ASP4        0.0526
     40 OD1        20.9720   -1.6370  -11.8480 O.co2   4  ASP4       -0.5491
     41 OD2        18.9940   -1.5970  -10.9480 O.co2   4  ASP4       -0.5491
     42 N          22.0710    2.4780  -10.2030 N.am    5  THR5       -0.1937
     43 CA         22.1850    3.8860   -9.8330 C.3     5  THR5        0.2028
     44 C          20.8410    4.5090   -9.9900 C.2     5  THR5        0.2642
     45 O          20.2550    4.4070  -11.0480 O.2     5  THR5       -0.2714
     46 CB         23.1850    4.5770  -10.7800 C.3     5  THR5        0.1808
     47 OG1        24.4870    4.0270  -10.5190 O.3     5  THR5       -0.2208
     48 CG2        23.2190    6.1060  -10.6950 C.3     5  THR5        0.0379
     49 N          20.3420    5.1170   -8.9480 N.am    6  VAL6       -0.1977
     50 CA         19.0560    5.8120   -9.0920 C.3     6  VAL6        0.1596
     51 C          19.0660    7.2470   -8.5340 C.2     6  VAL6        0.2287
     52 O          19.5330    7.5360   -7.4330 O.2     6  VAL6       -0.2864
     53 CB         17.8460    4.9520   -8.6130 C.3     6  VAL6        0.0276
     54 CG2        18.1090    4.1980   -7.3440 C.3     6  VAL6        0.0022
     55 CG1        16.4760    5.6750   -8.5510 C.3     6  VAL6        0.0022
     56 N          10.9030    0.9230  -16.1130 N.3     1  LYS1       -0.1231
     57 CA         11.4930   -0.1710  -15.3430 C.3     1  LYS1        0.1693
     58 C          11.0320   -0.0760  -13.9080 C.2     1  LYS1        0.2592
     59 O          10.5560    0.9320  -13.4120 O.2     1  LYS1       -0.2718
     60 CB         13.0190   -0.0300  -15.3360 C.3     1  LYS1        0.0285
     61 CG         13.7210   -1.3110  -14.9210 C.3     1  LYS1        0.0035
     62 CD         15.2180   -1.2150  -14.6400 C.3     1  LYS1        0.0206
     63 CE         15.6840   -2.6180  -14.2910 C.3     1  LYS1        0.1093
     64 NZ         17.1210   -2.6950  -13.9970 N.3     1  LYS1       -0.1314
     65 N          11.1770   -1.1730  -13.2250 N.am    2  MET2       -0.1965
     66 CA         10.8010   -1.1590  -11.8130 C.3     2  MET2        0.1736
     67 C          11.8460   -1.7920  -10.9460 C.2     2  MET2        0.2616
     68 O          12.4900   -2.7760  -11.2720 O.2     2  MET2       -0.2715
     69 CB          9.4250   -1.8370  -11.5890 C.3     2  MET2        0.0427
     70 CG          8.2950   -0.8000  -11.7680 C.3     2  MET2        0.0599
     71 SD          6.6050   -1.4240  -11.9680 S.3     2  MET2       -0.1393
     72 CE          6.8810   -2.2780  -13.5410 C.3     2  MET2        0.0692
     73 N          12.0270   -1.1470   -9.8180 N.am    3  ILE3       -0.1963
     74 CA         13.0090   -1.7160   -8.8870 C.3     3  ILE3        0.1727
     75 C          12.4500   -1.8600   -7.4880 C.2     3  ILE3        0.2617
     76 O          11.5140   -1.2220   -7.0420 O.2     3  ILE3       -0.2715
     77 CB         14.3000   -0.8640   -8.8000 C.3     3  ILE3        0.0290
     78 CG1        14.0860    0.5580   -8.3050 C.3     3  ILE3        0.0022
     79 CG2        15.0480   -0.7830  -10.1100 C.3     3  ILE3        0.0023
     80 CD1        15.4170    1.2670   -8.1470 C.3     3  ILE3        0.0001
     81 N          13.0900   -2.6940   -6.7310 N.am    4  GLY4       -0.1940
     82 CA         12.7080   -2.5110   -5.3340 C.3     4  GLY4        0.2014
     83 C          13.7630   -2.8090   -4.3310 C.2     4  GLY4        0.2639
     84 O          14.9480   -2.9460   -4.6100 O.2     4  GLY4       -0.2714
     85 N          13.2280   -2.9030   -3.1350 N.am    5  GLY5       -0.1939
     86 CA         14.0220   -3.4120   -2.0270 C.3     5  GLY5        0.2014
     87 C          13.2090   -3.2910   -0.7770 C.2     5  GLY5        0.2639
     88 O          12.0700   -3.7300   -0.7530 O.2     5  GLY5       -0.2714
     89 N          13.7390   -2.6180    0.2550 N.am    6  ILE6       -0.1963
     90 CA         13.0080   -2.6520    1.5320 C.3     6  ILE6        0.1727
     91 C          11.5850   -2.1430    1.6560 C.2     6  ILE6        0.2617
     92 O          10.7370   -2.8650    2.1200 O.2     6  ILE6       -0.2715
     93 CB         13.8880   -2.1700    2.6630 C.3     6  ILE6        0.0290
     94 CG1        14.5450   -3.4360    3.2040 C.3     6  ILE6        0.0022
     95 CG2        13.1400   -1.4290    3.7890 C.3     6  ILE6        0.0023
     96 CD1        15.9290   -3.2750    3.8060 C.3     6  ILE6        0.0001
     97 N          11.2150   -0.9550    1.2250 N.am    7  GLY7       -0.1940
     98 CA          9.7400   -0.8630    1.3530 C.3     7  GLY7        0.2014
     99 C           8.7980   -1.6170    0.3730 C.2     7  GLY7        0.2639
    100 O           7.5910   -1.4960    0.2940 O.2     7  GLY7       -0.2714
    101 N           9.4280   -2.3770   -0.4810 N.am    8  GLY8       -0.1939
    102 CA          8.7770   -2.7110   -1.7400 C.3     8  GLY8        0.2014
    103 C           9.3840   -2.0290   -2.9350 C.2     8  GLY8        0.2639
    104 O          10.5710   -1.7360   -3.0390 O.2     8  GLY8       -0.2714
    105 N           8.4840   -1.8060   -3.8640 N.am    9  PHE9       -0.1959
    106 CA          8.8950   -1.5470   -5.2490 C.3     9  PHE9        0.1771
    107 C           8.6420   -0.1510   -5.8080 C.2     9  PHE9        0.2619
    108 O           7.6830    0.5250   -5.4980 O.2     9  PHE9       -0.2715
    109 CB          8.3100   -2.7070   -6.1160 C.3     9  PHE9        0.0574
    110 CG          9.4170   -3.7430   -6.1550 C.ar    9  PHE9       -0.0200
    111 CD2         9.8450   -4.3710   -4.9890 C.ar    9  PHE9       -0.0042
    112 CD1        10.1010   -3.9750   -7.3440 C.ar    9  PHE9       -0.0042
    113 CE2        10.9560   -5.2070   -5.0090 C.ar    9  PHE9       -0.0003
    114 CE1        11.2090   -4.8160   -7.3780 C.ar    9  PHE9       -0.0003
    115 CZ         11.6390   -5.4340   -6.2080 C.ar    9  PHE9       -0.0000
    116 N           9.5030    0.3000   -6.6600 N.am   10  ILE10      -0.1977
    117 CA          9.1490    1.5650   -7.2790 C.3    10  ILE10       0.1596
    118 C           9.2460    1.5470   -8.7950 C.2    10  ILE10       0.2287
    119 O           9.8840    0.7120   -9.4290 O.2    10  ILE10      -0.2864
    120 CB          9.9930    2.7280   -6.7080 C.3    10  ILE10       0.0276
    121 CG1        11.5150    2.7180   -6.9550 C.3    10  ILE10       0.0022
    122 CG2         9.6590    2.9560   -5.2370 C.3    10  ILE10       0.0022
    123 CD1        12.1140    4.1430   -6.9230 C.3    10  ILE10       0.0001
    124 N          18.8180    5.3960  -13.4740 N.3     1  LEU1       -0.1245
    125 CA         17.3580    5.3460  -13.3210 C.3     1  LEU1        0.1561
    126 C          16.8960    6.6190  -12.6480 C.2     1  LEU1        0.2260
    127 O          17.5700    7.1220  -11.7560 O.2     1  LEU1       -0.2867
    128 CB         16.9490    4.1600  -12.4220 C.3     1  LEU1        0.0270
    129 CG         17.5510    2.7990  -12.8360 C.3     1  LEU1        0.0019
    130 CD2        17.1180    1.6650  -11.9270 C.3     1  LEU1        0.0001
    131 CD1        17.1310    2.4540  -14.2610 C.3     1  LEU1        0.0001
    132 N          13.8520    8.5870  -10.3700 N.2     1  GLY1       -0.1414
    133 CA         12.6210    8.1760   -9.7060 C.2     1  GLY1        0.1799
    134 C          12.4480    8.5860   -8.2590 C.2     1  GLY1        0.2706
    135 O          13.2500    9.2930   -7.6600 O.2     1  GLY1       -0.2681
    136 N          11.3370    8.1330   -7.7010 N.am    2  PRO2       -0.2681
    137 CA         11.0070    8.5150   -6.3070 C.3     2  PRO2        0.1538
    138 C          11.7880    7.7220   -5.2120 C.2     2  PRO2        0.2599
    139 O          11.2730    6.9990   -4.3780 O.2     2  PRO2       -0.2715
    140 CB          9.4880    8.2830   -6.3050 C.3     2  PRO2        0.0310
    141 CG          9.3180    7.0590   -7.2070 C.3     2  PRO2        0.0237
    142 CD         10.3160    7.3250   -8.3350 C.3     2  PRO2        0.0942
    143 N          13.1100    7.9290   -5.2660 N.am    3  THR3       -0.1938
    144 CA         14.0930    7.4660   -4.2740 C.3     3  THR3        0.2013
    145 C          14.3350    8.5370   -3.2360 C.2     3  THR3        0.2484
    146 O          14.2720    9.7070   -3.5860 O.2     3  THR3       -0.2729
    147 CB         15.4290    7.1400   -4.9810 C.3     3  THR3        0.1807
    148 OG1        16.4100    6.7340   -4.0090 O.3     3  THR3       -0.2208
    149 CG2        15.9470    8.3100   -5.8370 C.3     3  THR3        0.0379
    150 N          14.5760    8.1210   -1.9510 N.am    4  PRO4       -0.2715
    151 CA         14.8900    9.0960   -0.8600 C.3     4  PRO4        0.1536
    152 C          16.1590   10.0000   -1.0450 C.2     4  PRO4        0.2598
    153 O          16.3290   11.1060   -0.5620 O.2     4  PRO4       -0.2715
    154 CB         15.0670    8.1400    0.3510 C.3     4  PRO4        0.0310
    155 CG         14.3780    6.8140    0.0510 C.3     4  PRO4        0.0237
    156 CD         14.4990    6.7320   -1.4580 C.3     4  PRO4        0.0939
    157 N          17.1040    9.4350   -1.7580 N.am    5  VAL5       -0.1964
    158 CA         18.4070   10.0390   -1.8110 C.3     5  VAL5        0.1727
    159 C          18.9900    9.4960   -3.0770 C.2     5  VAL5        0.2616
    160 O          18.6090    8.4500   -3.5620 O.2     5  VAL5       -0.2715
    161 CB         19.2300    9.6860   -0.5040 C.3     5  VAL5        0.0290
    162 CG2        19.2970    8.1980   -0.2200 C.3     5  VAL5        0.0023
    163 CG1        20.6580   10.2390   -0.4230 C.3     5  VAL5        0.0023
    164 N          19.8850   10.2690   -3.6450 N.am    6  ASN6       -0.1958
    165 CA         20.5660    9.8390   -4.8480 C.3     6  ASN6        0.1819
    166 C          21.5380    8.7040   -4.5350 C.2     6  ASN6        0.2621
    167 O          22.3780    8.8120   -3.6550 O.2     6  ASN6       -0.2715
    168 CB         21.3260   11.0530   -5.3760 C.3     6  ASN6        0.1195
    169 CG         20.4310   12.1700   -5.8660 C.2     6  ASN6        0.2630
    170 OD1        19.4530   11.9810   -6.5640 O.2     6  ASN6       -0.2716
    171 ND2        20.7960   13.3910   -5.5420 N.am    6  ASN6       -0.0877
    172 N          21.3960    7.6100   -5.2710 N.am    7  ILE7       -0.1977
    173 CA         22.2430    6.4130   -5.0810 C.3     7  ILE7        0.1596
    174 C          23.1050    6.1400   -6.3110 C.2     7  ILE7        0.2287
    175 O          22.6220    6.0450   -7.4230 O.2     7  ILE7       -0.2864
    176 CB         21.2980    5.2100   -4.8620 C.3     7  ILE7        0.0276
    177 CG1        20.6160    5.4070   -3.5260 C.3     7  ILE7        0.0022
    178 CG2        21.9130    3.7890   -4.8560 C.3     7  ILE7        0.0022
    179 CD1        19.2610    4.6960   -3.4780 C.3     7  ILE7        0.0001
@<TRIPOS>UNITY_ATOM_ATTR
15 1
charge -1
32 1
charge -1
40 1
charge -1
@<TRIPOS>BOND
     1     1     2    1
     2     2     3    1
     3     2     5    1
     4     3     4    2
     5     5     6    1
     6     6     8    1
     7     6     7    1
     8     9    10    1
     9    10    11    1
    10    10    13    1
    11    11    12    2
    12    13    14    1
    13    14    16   ar
    14    14    15   ar
    15    17    18    1
    16    18    19    1
    17    19    21   am
    18    19    20    2
    19    21    22    1
    20    22    23    1
    21    22    25    1
    22    23    26   am
    23    23    24    2
    24    26    27    1
    25    27    28    1
    26    27    30    1
    27    28    29    2
    28    28    34   am
    29    30    31    1
    30    31    33   ar
    31    31    32   ar
    32    34    35    1
    33    35    38    1
    34    35    36    1
    35    36    42   am
    36    36    37    2
    37    38    39    1
    38    39    40   ar
    39    39    41   ar
    40    42    43    1
    41    43    46    1
    42    43    44    1
    43    44    45    2
    44    44    49   am
    45    46    48    1
    46    46    47    1
    47    49    50    1
    48    50    53    1
    49    50    51    1
    50    51    52    2
    51    53    55    1
    52    53    54    1
    53    56    57    1
    54    57    60    1
    55    57    58    1
    56    58    59    2
    57    58    65   am
    58    60    61    1
    59    61    62    1
    60    62    63    1
    61    63    64    1
    62    65    66    1
    63    66    69    1
    64    66    67    1
    65    67    68    2
    66    67    73   am
    67    69    70    1
    68    70    71    1
    69    71    72    1
    70    73    74    1
    71    74    77    1
    72    74    75    1
    73    75    76    2
    74    75    81   am
    75    77    79    1
    76    77    78    1
    77    78    80    1
    78    81    82    1
    79    82    83    1
    80    83    84    2
    81    83    85   am
    82    85    86    1
    83    86    87    1
    84    87    88    2
    85    87    89   am
    86    89    90    1
    87    90    91    1
    88    90    93    1
    89    91    97   am
    90    91    92    2
    91    93    94    1
    92    93    95    1
    93    94    96    1
    94    97    98    1
    95    98    99    1
    96    99   101   am
    97    99   100    2
    98   101   102    1
    99   102   103    1
   100   103   105   am
   101   103   104    2
   102   105   106    1
   103   106   109    1
   104   106   107    1
   105   107   116   am
   106   107   108    2
   107   109   110    1
   108   110   112   ar
   109   110   111   ar
   110   111   113   ar
   111   112   114   ar
   112   113   115   ar
   113   114   115   ar
   114   116   117    1
   115   117   118    1
   116   117   120    1
   117   118   119    2
   118   120   121    1
   119   120   122    1
   120   121   123    1
   121   124   125    1
   122   125   126    1
   123   125   128    1
   124   126   127    2
   125   128   129    1
   126   129   131    1
   127   129   130    1
   128   132   133    2
   129   133   134    1
   130   134   136   am
   131   134   135    2
   132   136   142    1
   133   136   137    1
   134   137   140    1
   135   137   138    1
   136   138   143   am
   137   138   139    2
   138   140   141    1
   139   141   142    1
   140   143   144    1
   141   144   147    1
   142   144   145    1
   143   145   146    2
   144   145   150   am
   145   147   149    1
   146   147   148    1
   147   150   156    1
   148   150   151    1
   149   151   152    1
   150   151   154    1
   151   152   157   am
   152   152   153    2
   153   154   155    1
   154   155   156    1
   155   157   158    1
   156   158   159    1
   157   158   161    1
   158   159   164   am
   159   159   160    2
   160   161   163    1
   161   161   162    1
   162   164   165    1
   163   165   168    1
   164   165   166    1
   165   166   172   am
   166   166   167    2
   167   168   169    1
   168   169   170    2
   169   169   171   am
   170   172   173    1
   171   173   174    1
   172   173   176    1
   173   174   175    2
   174   176   178    1
   175   176   177    1
   176   177   179    1
