@<TRIPOS>MOLECULE
./2zgm/protein.pdb
 234 227 0 0 0
SMALL
GASTEIGER

@<TRIPOS>ATOM
      1 N           5.7830  -30.0280   -0.3940 N.3     1  GLY1       -0.1225
      2 CA          5.0060  -30.9670   -1.1790 C.3     1  GLY1        0.1811
      3 C           3.9410  -31.7540   -0.4360 C.2     1  GLY1        0.2280
      4 O           3.6140  -32.8660   -0.8460 O.2     1  GLY1       -0.2866
      5 N           7.2910  -26.1920  -12.5270 N.3     1  ASN1       -0.1226
      6 CA          6.5050  -26.7060  -13.6430 C.3     1  ASN1        0.1770
      7 C           5.0710  -26.1920  -13.6430 C.2     1  ASN1        0.2439
      8 O           4.1230  -26.9820  -13.6240 O.2     1  ASN1       -0.2733
      9 CB          6.5070  -28.2430  -13.6320 C.3     1  ASN1        0.1168
     10 CG          5.7640  -28.8250  -12.4380 C.2     1  ASN1        0.2627
     11 OD1         6.0480  -28.4840  -11.2890 O.2     1  ASN1       -0.2716
     12 ND2         4.8110  -29.7160  -12.7090 N.am    1  ASN1       -0.0877
     13 N           4.8860  -24.8570  -13.6830 N.am    2  PRO2       -0.2718
     14 CA          5.9070  -23.8050  -13.7400 C.3     2  PRO2        0.1535
     15 C           6.1410  -23.1200  -12.3910 C.2     2  PRO2        0.2599
     16 O           6.8620  -22.1240  -12.3130 O.2     2  PRO2       -0.2715
     17 CB          5.3210  -22.8370  -14.7470 C.3     2  PRO2        0.0310
     18 CG          3.8760  -22.8310  -14.3280 C.3     2  PRO2        0.0237
     19 CD          3.5730  -24.3100  -14.0870 C.3     2  PRO2        0.0939
     20 N           5.5270  -23.6400  -11.3360 N.am    3  ASN3       -0.1959
     21 CA          5.6670  -23.0260  -10.0180 C.3     3  ASN3        0.1819
     22 C           6.8510  -23.5300   -9.2130 C.2     3  ASN3        0.2621
     23 O           7.1280  -24.7270   -9.1830 O.2     3  ASN3       -0.2715
     24 CB          4.3970  -23.2480   -9.1980 C.3     3  ASN3        0.1195
     25 CG          3.1420  -22.9540   -9.9820 C.2     3  ASN3        0.2630
     26 OD1         2.2820  -23.8220  -10.1500 O.2     3  ASN3       -0.2716
     27 ND2         3.0260  -21.7260  -10.4700 N.am    3  ASN3       -0.0877
     28 N           7.5500  -22.6090   -8.5570 N.am    4  ASN4       -0.1958
     29 CA          8.6770  -22.9960   -7.7130 C.3     4  ASN4        0.1819
     30 C           8.0680  -23.4180   -6.3920 C.2     4  ASN4        0.2622
     31 O           8.4750  -24.4070   -5.7820 O.2     4  ASN4       -0.2715
     32 CB          9.6080  -21.8120   -7.4810 C.3     4  ASN4        0.1195
     33 CG         10.4990  -21.5400   -8.6640 C.2     4  ASN4        0.2630
     34 OD1        11.5990  -22.0830   -8.7600 O.2     4  ASN4       -0.2716
     35 ND2        10.0290  -20.7130   -9.5770 N.am    4  ASN4       -0.0877
     36 N           7.0670  -22.6510   -5.9740 N.am    5  THR5       -0.1937
     37 CA          6.3640  -22.8910   -4.7260 C.3     5  THR5        0.2028
     38 C           4.9330  -22.4140   -4.8340 C.2     5  THR5        0.2642
     39 O           4.6600  -21.3850   -5.4580 O.2     5  THR5       -0.2714
     40 CB          6.9870  -22.0960   -3.5630 C.3     5  THR5        0.1808
     41 OG1         8.3650  -22.4400   -3.4170 O.3     5  THR5       -0.2208
     42 CG2         6.2410  -22.3830   -2.2710 C.3     5  THR5        0.0379
     43 N           4.0150  -23.1700   -4.2410 N.am    6  THR6       -0.1950
     44 CA          2.6220  -22.7630   -4.2020 C.3     6  THR6        0.1897
     45 C           2.1190  -22.9990   -2.7850 C.2     6  THR6        0.2313
     46 O           2.4700  -23.9910   -2.1380 O.2     6  THR6       -0.2863
     47 CB          1.7170  -23.5500   -5.1710 C.3     6  THR6        0.1794
     48 OG1         1.7230  -24.9350   -4.8130 O.3     6  THR6       -0.2208
     49 CG2         2.1900  -23.3770   -6.6090 C.3     6  THR6        0.0378
     50 N          -1.4920  -23.0840   -0.6300 N.3     1  ASN1       -0.1240
     51 CA         -2.9270  -23.1850   -0.8780 C.3     1  ASN1        0.1653
     52 C          -3.8180  -23.3580    0.3380 C.2     1  ASN1        0.2266
     53 O          -3.4440  -24.0150    1.3140 O.2     1  ASN1       -0.2867
     54 CB         -3.1920  -24.3660   -1.8090 C.3     1  ASN1        0.1155
     55 CG         -2.3590  -24.3120   -3.0600 C.2     1  ASN1        0.2627
     56 OD1        -2.7280  -23.6600   -4.0330 O.2     1  ASN1       -0.2716
     57 ND2        -1.2110  -24.9780   -3.0350 N.am    1  ASN1       -0.0877
     58 N          -7.4570  -24.8510    1.1330 N.3     1  PHE1       -0.1241
     59 CA         -8.4780  -25.7250    0.5540 C.3     1  PHE1        0.1605
     60 C          -9.7770  -25.7520    1.3490 C.2     1  PHE1        0.2264
     61 O          -9.7690  -25.6880    2.5790 O.2     1  PHE1       -0.2867
     62 CB         -7.9810  -27.1730    0.4820 C.3     1  PHE1        0.0534
     63 CG         -6.7580  -27.3640   -0.3500 C.ar    1  PHE1       -0.0203
     64 CD2        -5.4900  -27.2340    0.2080 C.ar    1  PHE1       -0.0042
     65 CD1        -6.8730  -27.6820   -1.6950 C.ar    1  PHE1       -0.0042
     66 CE2        -4.3550  -27.4190   -0.5680 C.ar    1  PHE1       -0.0003
     67 CE1        -5.7480  -27.8690   -2.4810 C.ar    1  PHE1       -0.0003
     68 CZ         -4.4850  -27.7390   -1.9200 C.ar    1  PHE1       -0.0000
     69 N          -9.7270  -25.1670   -4.3190 N.3     1  TYR1       -0.1241
     70 CA         -8.6120  -24.2810   -4.0280 C.3     1  TYR1        0.1605
     71 C          -9.2580  -22.9260   -3.7800 C.2     1  TYR1        0.2264
     72 O          -9.5670  -22.2020   -4.7300 O.2     1  TYR1       -0.2867
     73 CB         -7.6670  -24.1660   -5.2250 C.3     1  TYR1        0.0534
     74 CG         -6.7080  -25.3190   -5.4050 C.ar    1  TYR1       -0.0201
     75 CD2        -5.3730  -25.2180   -4.9950 C.ar    1  TYR1       -0.0009
     76 CD1        -7.1210  -26.4970   -6.0160 C.ar    1  TYR1       -0.0009
     77 CE2        -4.4750  -26.2690   -5.2020 C.ar    1  TYR1        0.0417
     78 CE1        -6.2340  -27.5490   -6.2290 C.ar    1  TYR1        0.0417
     79 CZ         -4.9140  -27.4280   -5.8240 C.ar    1  TYR1        0.1957
     80 OH         -4.0430  -28.4610   -6.0760 O.3     1  TYR1       -0.2866
     81 N          -5.0050  -20.0070   -4.1140 N.3     1  HIS1       -0.1241
     82 CA         -3.8040  -20.6280   -4.6540 C.3     1  HIS1        0.1621
     83 C          -2.7970  -19.4940   -4.8600 C.2     1  HIS1        0.2264
     84 O          -3.0640  -18.5530   -5.6130 O.2     1  HIS1       -0.2867
     85 CB         -4.1550  -21.3020   -5.9920 C.3     1  HIS1        0.0745
     86 CG         -2.9720  -21.8070   -6.7630 C.ar    1  HIS1        0.0817
     87 ND1        -2.2380  -22.9100   -6.3770 N.ar    1  HIS1       -0.2268
     88 CD2        -2.4030  -21.3610   -7.9060 C.ar    1  HIS1        0.1154
     89 CE1        -1.2720  -23.1200   -7.2510 C.ar    1  HIS1        0.1986
     90 NE2        -1.3490  -22.1930   -8.1900 N.ar    1  HIS1       -0.2212
     91 N           0.8660  -18.8570   -6.1730 N.3     1  ALA1       -0.1245
     92 CA          1.9650  -19.4630   -6.9080 C.3     1  ALA1        0.1562
     93 C           3.1270  -18.5200   -7.1340 C.2     1  ALA1        0.2260
     94 O           2.9640  -17.4330   -7.6950 O.2     1  ALA1       -0.2867
     95 CB          1.4620  -20.0000   -8.2470 C.3     1  ALA1        0.0290
     96 N           6.5110  -17.8880   -9.0560 N.3     1  ARG1       -0.1245
     97 CA          7.2440  -18.2910  -10.2530 C.3     1  ARG1        0.1563
     98 C           8.4500  -17.3960  -10.4900 C.2     1  ARG1        0.2260
     99 O           8.3010  -16.2230  -10.8500 O.2     1  ARG1       -0.2867
    100 CB          6.3270  -18.2410  -11.4870 C.3     1  ARG1        0.0307
    101 CG          5.0440  -19.0510  -11.3450 C.3     1  ARG1        0.0489
    102 CD          4.1910  -19.0160  -12.6130 C.3     1  ARG1        0.2205
    103 NE          2.9340  -19.7350  -12.4280 N.pl3   1  ARG1       -0.0865
    104 CZ          1.9390  -19.7600  -13.3090 C.cat   1  ARG1        0.5346
    105 NH1         2.0490  -19.1040  -14.4530 N.pl3   1  ARG1        0.1354
    106 NH2         0.8250  -20.4330  -13.0390 N.pl3   1  ARG1        0.1354
    107 N           8.8700  -17.1110  -14.6470 N.3     1  GLU1       -0.1245
    108 CA          7.8890  -16.2200  -15.2570 C.3     1  GLU1        0.1565
    109 C           7.8560  -14.9550  -14.4190 C.2     1  GLU1        0.2260
    110 O           7.1160  -14.0160  -14.7060 O.2     1  GLU1       -0.2867
    111 CB          6.5120  -16.8730  -15.2890 C.3     1  GLU1        0.0329
    112 CG          6.4740  -18.1160  -16.1520 C.3     1  GLU1        0.0437
    113 CD          5.0910  -18.6920  -16.2720 C.2     1  GLU1        0.0504
    114 OE1         4.9750  -19.8450  -16.7450 O.co2   1  GLU1       -0.5492
    115 OE2         4.1240  -17.9910  -15.9000 O.co2   1  GLU1       -0.5492
    116 N           1.1720  -15.5820   -8.7540 N.3     1  ILE1       -0.1231
    117 CA         -0.1730  -15.7930   -9.2560 C.3     1  ILE1        0.1692
    118 C          -1.1020  -16.0970   -8.1020 C.2     1  ILE1        0.2592
    119 O          -0.7290  -16.8030   -7.1500 O.2     1  ILE1       -0.2718
    120 CB         -0.2310  -16.9970  -10.2250 C.3     1  ILE1        0.0266
    121 CG1         0.7240  -16.7730  -11.4020 C.3     1  ILE1        0.0019
    122 CG2        -1.6640  -17.2120  -10.7060 C.3     1  ILE1        0.0020
    123 CD1         0.4530  -15.5320  -12.1900 C.3     1  ILE1        0.0001
    124 N          -2.3030  -15.5400   -8.1850 N.am    2  PHE2       -0.1962
    125 CA         -3.3370  -15.7660   -7.1960 C.3     2  PHE2        0.1771
    126 C          -4.5270  -16.2910   -7.9780 C.2     2  PHE2        0.2620
    127 O          -4.9220  -15.7090   -8.9870 O.2     2  PHE2       -0.2715
    128 CB         -3.7060  -14.4620   -6.4840 C.3     2  PHE2        0.0574
    129 CG         -2.5740  -13.8690   -5.7060 C.ar    2  PHE2       -0.0200
    130 CD1        -1.6590  -13.0230   -6.3200 C.ar    2  PHE2       -0.0042
    131 CD2        -2.3850  -14.2070   -4.3690 C.ar    2  PHE2       -0.0042
    132 CE1        -0.5650  -12.5230   -5.6160 C.ar    2  PHE2       -0.0003
    133 CE2        -1.2960  -13.7140   -3.6570 C.ar    2  PHE2       -0.0003
    134 CZ         -0.3830  -12.8680   -4.2840 C.ar    2  PHE2       -0.0000
    135 N          -5.0980  -17.3990   -7.5280 N.am    3  ASN3       -0.1958
    136 CA         -6.2350  -17.9590   -8.2360 C.3     3  ASN3        0.1819
    137 C          -6.9960  -18.9380   -7.3470 C.2     3  ASN3        0.2622
    138 O          -6.6180  -19.1700   -6.1900 O.2     3  ASN3       -0.2715
    139 CB         -5.7390  -18.6640   -9.5040 C.3     3  ASN3        0.1195
    140 CG         -6.7900  -18.6990  -10.6170 C.2     3  ASN3        0.2630
    141 OD1        -7.9570  -18.3790  -10.3980 O.2     3  ASN3       -0.2716
    142 ND2        -6.3690  -19.0920  -11.8150 N.am    3  ASN3       -0.0877
    143 N          -8.0620  -19.5040   -7.9050 N.am    4  SER4       -0.1936
    144 CA         -8.9150  -20.4680   -7.2200 C.3     4  SER4        0.2055
    145 C          -9.4500  -21.4770   -8.2410 C.2     4  SER4        0.2642
    146 O          -9.4070  -21.2330   -9.4540 O.2     4  SER4       -0.2714
    147 CB        -10.1050  -19.7560   -6.5730 C.3     4  SER4        0.2130
    148 OG         -9.7050  -18.7450   -5.6600 O.3     4  SER4       -0.2179
    149 N          -9.9460  -22.6080   -7.7550 N.am    5  ARG5       -0.1977
    150 CA        -10.5270  -23.6140   -8.6390 C.3     5  ARG5        0.1597
    151 C         -11.3280  -24.6260   -7.8470 C.2     5  ARG5        0.2287
    152 O         -10.9670  -24.9800   -6.7210 O.2     5  ARG5       -0.2864
    153 CB         -9.4510  -24.3440   -9.4500 C.3     5  ARG5        0.0334
    154 CG         -8.5460  -25.2570   -8.6310 C.3     5  ARG5        0.0492
    155 CD         -7.6030  -26.0570   -9.5240 C.3     5  ARG5        0.2205
    156 NE         -8.3290  -27.0020  -10.3630 N.pl3   5  ARG5       -0.0865
    157 CZ         -8.2550  -28.3240  -10.2420 C.cat   5  ARG5        0.5346
    158 NH1        -8.9630  -29.0960  -11.0520 N.pl3   5  ARG5        0.1354
    159 NH2        -7.4660  -28.8740   -9.3290 N.pl3   5  ARG5        0.1354
    160 N         -11.7250  -26.0690  -13.9150 N.3     1  PRO1       -0.2102
    161 CA        -10.5430  -25.4390  -14.5070 C.3     1  PRO1        0.1504
    162 C         -10.0600  -24.2890  -13.6240 C.2     1  PRO1        0.2576
    163 O         -10.8050  -23.8030  -12.7700 O.2     1  PRO1       -0.2718
    164 CB        -11.0630  -24.9470  -15.8500 C.3     1  PRO1        0.0282
    165 CG        -12.4780  -24.5320  -15.5060 C.3     1  PRO1        0.0208
    166 CD        -12.9510  -25.6880  -14.6420 C.3     1  PRO1        0.0893
    167 N          -8.8130  -23.8690  -13.8060 N.am    2  TRP2       -0.1963
    168 CA         -8.3060  -22.7410  -13.0320 C.3     2  TRP2        0.1768
    169 C          -9.1570  -21.5450  -13.4150 C.2     2  TRP2        0.2619
    170 O          -9.5300  -21.3980  -14.5740 O.2     2  TRP2       -0.2715
    171 CB         -6.8400  -22.4700  -13.3550 C.3     2  TRP2        0.0553
    172 CG         -5.9390  -23.4010  -12.6370 C.2     2  TRP2       -0.0136
    173 CD1        -5.2320  -24.4420  -13.1710 C.2     2  TRP2        0.0907
    174 CD2        -5.7040  -23.4320  -11.2280 C.3     2  TRP2        0.0819
    175 NE1        -4.5720  -25.1220  -12.1740 N.2     2  TRP2       -0.2482
    176 CE2        -4.8450  -24.5240  -10.9730 C.2     2  TRP2        0.0665
    177 CE3        -6.1380  -22.6430  -10.1530 C.2     2  TRP2       -0.0164
    178 CZ2        -4.4120  -24.8510   -9.6780 C.2     2  TRP2        0.0153
    179 CZ3        -5.7080  -22.9670   -8.8680 C.2     2  TRP2       -0.0038
    180 CH2        -4.8520  -24.0630   -8.6410 C.2     2  TRP2        0.0009
    181 N          -9.4720  -20.6940  -12.4460 N.am    3  LEU3       -0.1977
    182 CA        -10.3060  -19.5440  -12.7290 C.3     3  LEU3        0.1596
    183 C          -9.5280  -18.3120  -13.1870 C.2     3  LEU3        0.2287
    184 O          -8.4900  -18.4420  -13.8400 O.2     3  LEU3       -0.2864
    185 CB        -11.1890  -19.2420  -11.5160 C.3     3  LEU3        0.0297
    186 CG        -12.1540  -20.4000  -11.2180 C.3     3  LEU3        0.0022
    187 CD2       -12.9230  -20.1300   -9.9590 C.3     3  LEU3        0.0001
    188 CD1       -13.1210  -20.5900  -12.3900 C.3     3  LEU3        0.0001
    189 N          -6.9970  -15.5230  -13.0830 N.3     1  GLU1       -0.1245
    190 CA         -5.7500  -15.1920  -12.4000 C.3     1  GLU1        0.1565
    191 C          -5.5500  -13.7120  -12.0780 C.2     1  GLU1        0.2260
    192 O          -5.9000  -12.8350  -12.8630 O.2     1  GLU1       -0.2867
    193 CB         -4.5430  -15.6340  -13.2360 C.3     1  GLU1        0.0329
    194 CG         -4.3390  -17.1220  -13.3690 C.3     1  GLU1        0.0437
    195 CD         -3.0870  -17.4580  -14.1620 C.2     1  GLU1        0.0504
    196 OE2        -2.7100  -18.6470  -14.1900 O.co2   1  GLU1       -0.5492
    197 OE1        -2.4830  -16.5380  -14.7610 O.co2   1  GLU1       -0.5492
    198 N          -2.3760  -11.2600  -10.8550 N.3     1  ARG1       -0.1245
    199 CA         -0.9240  -11.3570  -10.7550 C.3     1  ARG1        0.1563
    200 C          -0.2160  -10.1490  -10.1810 C.2     1  ARG1        0.2260
    201 O          -0.7030   -9.0260  -10.2720 O.2     1  ARG1       -0.2867
    202 CB         -0.3220  -11.6150  -12.1350 C.3     1  ARG1        0.0307
    203 CG         -0.9770  -12.7350  -12.9200 C.3     1  ARG1        0.0489
    204 CD         -0.2410  -12.9530  -14.2220 C.3     1  ARG1        0.2205
    205 NE         -0.5080  -14.2750  -14.7770 N.pl3   1  ARG1       -0.0865
    206 CZ          0.3180  -14.9090  -15.6040 C.cat   1  ARG1        0.5346
    207 NH2         1.4610  -14.3370  -15.9670 N.pl3   1  ARG1        0.1354
    208 NH1         0.0080  -16.1200  -16.0560 N.pl3   1  ARG1        0.1354
    209 N          -1.7320  -26.4760    1.9940 N.3     1  SER1       -0.1217
    210 CA         -0.6750  -27.2380    1.3480 C.3     1  SER1        0.1889
    211 C           0.4800  -26.3190    0.9740 C.2     1  SER1        0.2288
    212 O           0.2880  -25.1440    0.6640 O.2     1  SER1       -0.2866
    213 CB         -1.1790  -27.9600    0.0960 C.3     1  SER1        0.2089
    214 OG         -1.4330  -27.0490   -0.9500 O.3     1  SER1       -0.2183
    215 N           3.3270  -26.6430   -1.6320 N.3     1  ASN1       -0.1225
    216 CA          3.8080  -27.3980   -2.7810 C.3     1  ASN1        0.1785
    217 C           5.0960  -26.8450   -3.3710 C.2     1  ASN1        0.2597
    218 O           5.2080  -25.6500   -3.6530 O.2     1  ASN1       -0.2718
    219 CB          2.7400  -27.4240   -3.8770 C.3     1  ASN1        0.1169
    220 CG          1.4680  -28.1490   -3.4530 C.2     1  ASN1        0.2627
    221 OD1         1.2990  -28.5180   -2.2900 O.2     1  ASN1       -0.2716
    222 ND2         0.5620  -28.3440   -4.4040 N.am    1  ASN1       -0.0877
    223 N           6.0520  -27.7410   -3.5740 N.am    2  ALA2       -0.1966
    224 CA          7.3440  -27.3980   -4.1370 C.3     2  ALA2        0.1728
    225 C           8.2450  -28.6080   -4.0010 C.2     2  ALA2        0.2616
    226 O           7.9580  -29.5260   -3.2370 O.2     2  ALA2       -0.2715
    227 CB          7.9530  -26.2280   -3.3860 C.3     2  ALA2        0.0334
    228 N           9.3270  -28.6180   -4.7630 N.am    3  THR3       -0.1951
    229 CA         10.2810  -29.7010   -4.6670 C.3     3  THR3        0.1897
    230 C          11.3510  -29.0440   -3.8070 C.2     3  THR3        0.2313
    231 O          11.4370  -27.8160   -3.7760 O.2     3  THR3       -0.2863
    232 CB         10.8350  -30.0850   -6.0540 C.3     3  THR3        0.1794
    233 OG1        11.3300  -31.4240   -6.0060 O.3     3  THR3       -0.2208
    234 CG2        11.9630  -29.1560   -6.4660 C.3     3  THR3        0.0378
@<TRIPOS>UNITY_ATOM_ATTR
114 1
charge -1
196 1
charge -1
@<TRIPOS>BOND
     1     1     2    1
     2     2     3    1
     3     3     4    2
     4     5     6    1
     5     6     7    1
     6     6     9    1
     7     7    13   am
     8     7     8    2
     9     9    10    1
    10    10    12   am
    11    10    11    2
    12    13    19    1
    13    13    14    1
    14    14    17    1
    15    14    15    1
    16    15    16    2
    17    15    20   am
    18    17    18    1
    19    18    19    1
    20    20    21    1
    21    21    22    1
    22    21    24    1
    23    22    23    2
    24    22    28   am
    25    24    25    1
    26    25    27   am
    27    25    26    2
    28    28    29    1
    29    29    32    1
    30    29    30    1
    31    30    36   am
    32    30    31    2
    33    32    33    1
    34    33    35   am
    35    33    34    2
    36    36    37    1
    37    37    38    1
    38    37    40    1
    39    38    39    2
    40    38    43   am
    41    40    41    1
    42    40    42    1
    43    43    44    1
    44    44    47    1
    45    44    45    1
    46    45    46    2
    47    47    49    1
    48    47    48    1
    49    50    51    1
    50    51    54    1
    51    51    52    1
    52    52    53    2
    53    54    55    1
    54    55    56    2
    55    55    57   am
    56    58    59    1
    57    59    62    1
    58    59    60    1
    59    60    61    2
    60    62    63    1
    61    63    65   ar
    62    63    64   ar
    63    64    66   ar
    64    65    67   ar
    65    66    68   ar
    66    67    68   ar
    67    69    70    1
    68    70    73    1
    69    70    71    1
    70    71    72    2
    71    73    74    1
    72    74    76   ar
    73    74    75   ar
    74    75    77   ar
    75    76    78   ar
    76    77    79   ar
    77    78    79   ar
    78    79    80    1
    79    81    82    1
    80    82    85    1
    81    82    83    1
    82    83    84    2
    83    85    86    1
    84    86    88   ar
    85    86    87   ar
    86    87    89   ar
    87    88    90   ar
    88    89    90   ar
    89    91    92    1
    90    92    95    1
    91    92    93    1
    92    93    94    2
    93    96    97    1
    94    97   100    1
    95    97    98    1
    96    98    99    2
    97   100   101    1
    98   101   102    1
    99   102   103    1
   100   103   104    2
   101   104   105    1
   102   104   106    1
   103   107   108    1
   104   108   111    1
   105   108   109    1
   106   109   110    2
   107   111   112    1
   108   112   113    1
   109   113   114   ar
   110   113   115   ar
   111   116   117    1
   112   117   120    1
   113   117   118    1
   114   118   124   am
   115   118   119    2
   116   120   121    1
   117   120   122    1
   118   121   123    1
   119   124   125    1
   120   125   126    1
   121   125   128    1
   122   126   127    2
   123   126   135   am
   124   128   129    1
   125   129   130   ar
   126   129   131   ar
   127   130   132   ar
   128   131   133   ar
   129   132   134   ar
   130   133   134   ar
   131   135   136    1
   132   136   139    1
   133   136   137    1
   134   137   143   am
   135   137   138    2
   136   139   140    1
   137   140   142   am
   138   140   141    2
   139   143   144    1
   140   144   145    1
   141   144   147    1
   142   145   146    2
   143   145   149   am
   144   147   148    1
   145   149   150    1
   146   150   153    1
   147   150   151    1
   148   151   152    2
   149   153   154    1
   150   154   155    1
   151   155   156    1
   152   156   157    2
   153   157   158    1
   154   157   159    1
   155   160   166    1
   156   160   161    1
   157   161   164    1
   158   161   162    1
   159   162   167   am
   160   162   163    2
   161   164   165    1
   162   165   166    1
   163   167   168    1
   164   168   169    1
   165   168   171    1
   166   169   170    2
   167   169   181   am
   168   171   172    1
   169   172   173    2
   170   172   174    1
   171   173   175    1
   172   174   176    1
   173   174   177    1
   174   175   176    2
   175   176   178    1
   176   177   179    2
   177   178   180    2
   178   179   180    1
   179   181   182    1
   180   182   183    1
   181   182   185    1
   182   183   184    2
   183   185   186    1
   184   186   188    1
   185   186   187    1
   186   189   190    1
   187   190   193    1
   188   190   191    1
   189   191   192    2
   190   193   194    1
   191   194   195    1
   192   195   197   ar
   193   195   196   ar
   194   198   199    1
   195   199   202    1
   196   199   200    1
   197   200   201    2
   198   202   203    1
   199   203   204    1
   200   204   205    1
   201   205   206    2
   202   206   208    1
   203   206   207    1
   204   209   210    1
   205   210   213    1
   206   210   211    1
   207   211   212    2
   208   213   214    1
   209   215   216    1
   210   216   219    1
   211   216   217    1
   212   217   218    2
   213   217   223   am
   214   219   220    1
   215   220   222   am
   216   220   221    2
   217   223   224    1
   218   224   225    1
   219   224   227    1
   220   225   228   am
   221   225   226    2
   222   228   229    1
   223   229   232    1
   224   229   230    1
   225   230   231    2
   226   232   234    1
   227   232   233    1
