@<TRIPOS>MOLECULE
./830c/protein.pdb
 255 258 0 0 0
SMALL
GASTEIGER

@<TRIPOS>ATOM
      1 N         -12.0200   30.5530   64.3310 N.3     1  SER1       -0.2359
      2 CA        -11.2640   31.3530   63.3700 C.3     1  SER1        0.1743
      3 C          -9.7490   31.1600   63.4910 C.2     1  SER1        0.2409
      4 O          -9.2780   30.1880   64.1110 O.2     1  SER1       -0.2735
      5 CB        -11.6380   32.8320   63.4830 C.3     1  SER1        0.1634
      6 OG        -12.9450   33.0440   62.9820 O.3     1  SER1       -0.3800
      7 H         -12.6050   29.8520   63.9930 H       1  SER1        0.1419
      8 H         -13.0750   34.0050   62.9540 H       1  SER1        0.2105
      9 N          -8.9940   32.0770   62.8860 N.am    2  GLY2       -0.2955
     10 CA         -7.5470   31.9810   62.9090 C.3     2  GLY2        0.1757
     11 C          -7.1600   30.7680   62.0880 C.2     2  GLY2        0.2428
     12 O          -7.5940   30.6240   60.9370 O.2     2  GLY2       -0.2732
     13 H          -9.3780   32.8530   62.3970 H       2  GLY2        0.1499
     14 N          -6.3720   29.8800   62.6820 N.am    3  LEU3       -0.2969
     15 CA         -5.9530   28.6470   62.0190 C.3     3  LEU3        0.1486
     16 C          -7.1840   27.7770   61.7980 C.2     3  LEU3        0.2406
     17 O          -8.0240   27.6360   62.7030 O.2     3  LEU3       -0.2733
     18 CB         -4.9730   27.8520   62.8920 C.3     3  LEU3        0.0290
     19 CG         -3.4970   28.2260   63.0190 C.3     3  LEU3        0.0021
     20 CD1        -3.1070   29.2750   61.9990 C.3     3  LEU3        0.0001
     21 CD2        -3.2240   28.6920   64.4260 C.3     3  LEU3        0.0001
     22 H          -6.0700   30.0670   63.5850 H       3  LEU3        0.1499
     23 N          -7.2840   27.1860   60.6120 N.am    4  LEU4       -0.2970
     24 CA         -8.4120   26.3100   60.3000 C.3     4  LEU4        0.1486
     25 C          -7.9430   24.8580   60.2750 C.2     4  LEU4        0.2406
     26 O          -8.6700   23.9580   60.6960 O.2     4  LEU4       -0.2733
     27 CB         -9.0080   26.6520   58.9310 C.3     4  LEU4        0.0290
     28 CG         -9.4020   28.1020   58.6260 C.3     4  LEU4        0.0021
     29 CD1        -9.9630   28.1860   57.2070 C.3     4  LEU4        0.0001
     30 CD2       -10.4250   28.5880   59.6490 C.3     4  LEU4        0.0001
     31 H          -6.5990   27.3470   59.9390 H       4  LEU4        0.1499
     32 N          -6.7220   24.6520   59.7880 N.am    5  ALA5       -0.2970
     33 CA         -6.1590   23.3090   59.6630 C.3     5  ALA5        0.1486
     34 C          -4.7010   23.3800   59.2580 C.2     5  ALA5        0.2406
     35 O          -4.1950   24.4530   58.9320 O.2     5  ALA5       -0.2733
     36 CB         -6.9400   22.5220   58.6090 C.3     5  ALA5        0.0312
     37 H          -6.1530   25.3910   59.4830 H       5  ALA5        0.1499
     38 N          -4.0140   22.2430   59.3330 N.am    6  HIS6       -0.2967
     39 CA         -2.6090   22.1470   58.9310 C.3     6  HIS6        0.1545
     40 C          -2.2880   20.7020   58.5830 C.2     6  HIS6        0.2410
     41 O          -2.9520   19.7740   59.0700 O.2     6  HIS6       -0.2733
     42 CB         -1.6140   22.7150   59.9720 C.3     6  HIS6        0.0741
     43 CG         -1.6620   22.0640   61.3250 C.ar    6  HIS6        0.0563
     44 ND1        -2.0100   22.7270   62.4790 N.ar    6  HIS6       -0.3381
     45 CD2        -1.3630   20.7970   61.7130 C.ar    6  HIS6        0.1131
     46 CE1        -1.9220   21.8730   63.5070 C.ar    6  HIS6        0.1748
     47 NE2        -1.5330   20.6770   63.1060 N.ar    6  HIS6       -0.2229
     48 H          -4.4800   21.4050   59.5540 H       6  HIS6        0.1499
     49 HD1        -2.2880   23.6700   62.5490 H       6  HIS6        0.1672
     50 N          -1.3170   20.5160   57.7020 N.am    7  ALA7       -0.2980
     51 CA         -0.9170   19.1800   57.2840 C.3     7  ALA7        0.1369
     52 C           0.5990   19.1040   57.1830 C.2     7  ALA7        0.2266
     53 O           1.2690   20.1270   56.9710 O.2     7  ALA7       -0.2865
     54 CB         -1.5660   18.8310   55.9710 C.3     7  ALA7        0.0298
     55 H          -0.9140   21.3140   57.2880 H       7  ALA7        0.1498
     56 N         -17.4710   23.2900   60.4830 N.3     1  TRP1       -0.2388
     57 CA        -17.2700   22.5700   59.2200 C.3     1  TRP1        0.1375
     58 C         -18.5840   22.2150   58.5400 C.2     1  TRP1        0.2244
     59 O         -19.4930   21.6960   59.1860 O.2     1  TRP1       -0.2868
     60 CB        -16.4690   21.2900   59.4860 C.3     1  TRP1        0.0529
     61 CG        -15.1370   21.5670   60.0680 C.ar    1  TRP1       -0.0020
     62 CD1       -14.7390   21.3320   61.3470 C.ar    1  TRP1        0.0681
     63 CD2       -14.0340   22.2020   59.4090 C.ar    1  TRP1        0.0131
     64 NE1       -13.4580   21.7910   61.5340 N.ar    1  TRP1       -0.3523
     65 CE2       -12.9990   22.3310   60.3610 C.ar    1  TRP1        0.0563
     66 CE3       -13.8200   22.6810   58.1030 C.ar    1  TRP1        0.0012
     67 CZ2       -11.7640   22.9200   60.0590 C.ar    1  TRP1        0.0170
     68 CZ3       -12.5900   23.2650   57.7980 C.ar    1  TRP1        0.0001
     69 CH2       -11.5760   23.3790   58.7810 C.ar    1  TRP1        0.0015
     70 H         -17.5450   22.7590   61.3160 H       1  TRP1        0.1418
     71 HE1       -12.9860   21.7480   62.4030 H       1  TRP1        0.1660
     72 N         -17.0290   26.7300   57.2000 N.3     1  TYR1       -0.2378
     73 CA        -15.9320   26.3650   56.3120 C.3     1  TYR1        0.1491
     74 C         -16.2290   25.0370   55.6300 C.2     1  TYR1        0.2386
     75 O         -16.4960   24.0370   56.3020 O.2     1  TYR1       -0.2736
     76 CB        -14.6040   26.3040   57.0830 C.3     1  TYR1        0.0527
     77 CG        -14.0600   27.6760   57.4210 C.ar    1  TYR1       -0.0201
     78 CD1       -13.4510   28.4630   56.4350 C.ar    1  TYR1       -0.0011
     79 CD2       -14.2130   28.2210   58.7000 C.ar    1  TYR1       -0.0011
     80 CE1       -13.0150   29.7570   56.7070 C.ar    1  TYR1        0.0363
     81 CE2       -13.7800   29.5250   58.9840 C.ar    1  TYR1        0.0363
     82 CZ        -13.1830   30.2830   57.9740 C.ar    1  TYR1        0.1337
     83 OH        -12.7650   31.5780   58.2020 O.3     1  TYR1       -0.5055
     84 H         -17.2220   26.1510   57.9620 H       1  TYR1        0.1418
     85 HH        -12.9940   31.8880   59.0970 H       1  TYR1        0.2922
     86 N         -16.2320   25.0440   54.2950 N.am    2  ASN2       -0.2978
     87 CA        -16.4970   23.8360   53.5000 C.3     2  ASN2        0.1460
     88 C         -15.3520   22.8350   53.6920 C.2     2  ASN2        0.2271
     89 O         -14.2070   23.1030   53.3120 O.2     2  ASN2       -0.2865
     90 CB        -16.6330   24.2030   52.0170 C.3     2  ASN2        0.1124
     91 CG        -17.1030   23.0350   51.1580 C.2     2  ASN2        0.2215
     92 OD1       -16.2970   22.2430   50.6640 O.2     2  ASN2       -0.2753
     93 ND2       -18.4070   22.9380   50.9560 N.am    2  ASN2       -0.3287
     94 H         -16.0750   25.9030   53.8470 H       2  ASN2        0.1498
     95 HD21      -18.7510   22.2270   50.3790 H       2  ASN2        0.1449
     96 HD22      -18.9830   23.6150   51.3780 H       2  ASN2        0.1449
     97 N         -13.2190   21.7050   50.4740 N.3     1  LEU1       -0.2380
     98 CA        -12.2300   22.6770   50.0110 C.3     1  LEU1        0.1447
     99 C         -10.9970   22.7550   50.8920 C.2     1  LEU1        0.2383
    100 O          -9.8580   22.7170   50.4070 O.2     1  LEU1       -0.2736
    101 CB        -12.8740   24.0640   49.8700 C.3     1  LEU1        0.0264
    102 CG        -13.9430   24.1640   48.7650 C.3     1  LEU1        0.0019
    103 CD2       -14.6170   25.5270   48.7920 C.3     1  LEU1        0.0001
    104 CD1       -13.3180   23.8920   47.3980 C.3     1  LEU1        0.0001
    105 H         -14.1120   21.9890   50.7520 H       1  LEU1        0.1418
    106 N         -11.2140   22.8760   52.1990 N.am    2  VAL2       -0.2972
    107 CA        -10.0910   22.9570   53.1200 C.3     2  VAL2        0.1485
    108 C          -9.2680   21.6650   53.0880 C.2     2  VAL2        0.2406
    109 O          -8.0450   21.7130   53.1090 O.2     2  VAL2       -0.2733
    110 CB        -10.5730   23.2750   54.5550 C.3     2  VAL2        0.0269
    111 CG2        -9.3930   23.2990   55.5310 C.3     2  VAL2        0.0022
    112 CG1       -11.3250   24.6250   54.5580 C.3     2  VAL2        0.0022
    113 H         -12.1380   22.8860   52.5460 H       2  VAL2        0.1499
    114 N          -9.9500   20.5230   52.9960 N.am    3  ALA3       -0.2970
    115 CA         -9.2880   19.2190   52.9530 C.3     3  ALA3        0.1486
    116 C          -8.4430   19.0950   51.6840 C.2     3  ALA3        0.2406
    117 O          -7.3170   18.6110   51.7320 O.2     3  ALA3       -0.2733
    118 CB        -10.3270   18.0930   53.0040 C.3     3  ALA3        0.0312
    119 H         -10.9260   20.5390   52.9340 H       3  ALA3        0.1499
    120 N          -9.0000   19.5310   50.5560 N.am    4  ALA4       -0.2970
    121 CA         -8.3020   19.4820   49.2680 C.3     4  ALA4        0.1486
    122 C          -6.9740   20.2560   49.3540 C.2     4  ALA4        0.2406
    123 O          -5.9340   19.7670   48.9050 O.2     4  ALA4       -0.2733
    124 CB         -9.2050   20.0370   48.1600 C.3     4  ALA4        0.0312
    125 H          -9.9190   19.8710   50.5660 H       4  ALA4        0.1499
    126 N          -7.0140   21.4230   49.9900 N.am    5  HIS5       -0.2967
    127 CA         -5.8370   22.2640   50.1880 C.3     5  HIS5        0.1545
    128 C          -4.8540   21.5570   51.1210 C.2     5  HIS5        0.2410
    129 O          -3.6510   21.4850   50.8370 O.2     5  HIS5       -0.2733
    130 CB         -6.2470   23.6280   50.7750 C.3     5  HIS5        0.0741
    131 CG         -5.0940   24.4810   51.2150 C.ar    5  HIS5        0.0563
    132 ND1        -4.5430   25.4870   50.4530 N.ar    5  HIS5       -0.3381
    133 CD2        -4.3750   24.4670   52.3680 C.ar    5  HIS5        0.1131
    134 CE1        -3.5280   26.0360   51.1430 C.ar    5  HIS5        0.1748
    135 NE2        -3.3710   25.4580   52.3240 N.ar    5  HIS5       -0.2229
    136 H          -7.8820   21.7350   50.3270 H       5  HIS5        0.1499
    137 HD1        -4.8860   25.7620   49.5730 H       5  HIS5        0.1672
    138 N          -5.3500   21.0410   52.2430 N.am    6  GLU6       -0.2980
    139 CA         -4.4780   20.3500   53.1940 C.3     6  GLU6        0.1372
    140 C          -3.8270   19.1080   52.5850 C.2     6  GLU6        0.2266
    141 O          -2.6380   18.8600   52.8020 O.2     6  GLU6       -0.2865
    142 CB         -5.2210   19.9970   54.4870 C.3     6  GLU6        0.0335
    143 CG         -5.6300   21.2140   55.3180 C.3     6  GLU6        0.0439
    144 CD         -4.4830   22.1900   55.5730 C.2     6  GLU6        0.0504
    145 OE2        -3.3360   21.7550   55.8370 O.co2   6  GLU6       -0.5492
    146 OE1        -4.7210   23.4160   55.4950 O.co2   6  GLU6       -0.5492
    147 H          -6.2920   21.1650   52.4860 H       6  GLU6        0.1498
    148 N          -0.7820   19.6880   50.7500 N.3     1  HIS1       -0.2388
    149 CA          0.3680   19.7260   51.6470 C.3     1  HIS1        0.1390
    150 C           0.8550   18.3090   51.9650 C.2     1  HIS1        0.2245
    151 O           2.0610   18.0450   51.9430 O.2     1  HIS1       -0.2868
    152 CB          0.0370   20.4440   52.9610 C.3     1  HIS1        0.0702
    153 CG         -0.1700   21.9250   52.8250 C.ar    1  HIS1        0.0560
    154 ND1         0.6440   22.7600   52.0960 N.ar    1  HIS1       -0.3381
    155 CD2        -1.0990   22.7310   53.4020 C.ar    1  HIS1        0.1131
    156 CE1         0.2010   24.0190   52.2530 C.ar    1  HIS1        0.1748
    157 NE2        -0.8590   24.0610   53.0400 N.ar    1  HIS1       -0.2229
    158 H          -1.6550   19.9970   51.0780 H       1  HIS1        0.1418
    159 HD1         1.4350   22.5120   51.5490 H       1  HIS1        0.1672
    160 N           3.5170   23.2220   48.7250 N.3     1  ASP1       -0.2377
    161 CA          3.5060   24.3030   49.6960 C.3     1  ASP1        0.1503
    162 C           2.5560   25.3410   49.1100 C.2     1  ASP1        0.2387
    163 O           1.8590   25.0710   48.1250 O.2     1  ASP1       -0.2736
    164 CB          4.9000   24.8960   49.8850 C.3     1  ASP1        0.0681
    165 CG          5.0920   25.5200   51.2600 C.2     1  ASP1        0.0522
    166 OD2         4.0890   25.8170   51.9450 O.co2   1  ASP1       -0.5491
    167 OD1         6.2560   25.7160   51.6620 O.co2   1  ASP1       -0.5491
    168 H           4.0530   23.3220   47.9140 H       1  ASP1        0.1418
    169 N           2.5190   26.5310   49.6930 N.am    2  HIS2       -0.2979
    170 CA          1.6120   27.5570   49.2060 C.3     2  HIS2        0.1428
    171 C           2.0730   28.1790   47.9010 C.2     2  HIS2        0.2270
    172 O           3.2610   28.2290   47.6130 O.2     2  HIS2       -0.2865
    173 CB          1.3920   28.6300   50.2820 C.3     2  HIS2        0.0728
    174 CG          0.7190   28.1110   51.5140 C.ar    2  HIS2        0.0563
    175 ND1         1.2210   28.2500   52.7890 N.ar    2  HIS2       -0.3381
    176 CD2        -0.4200   27.3840   51.6470 C.ar    2  HIS2        0.1131
    177 CE1         0.3940   27.6190   53.6350 C.ar    2  HIS2        0.1748
    178 NE2        -0.6220   27.0700   52.9920 N.ar    2  HIS2       -0.2229
    179 H           3.1240   26.7340   50.4400 H       2  HIS2        0.1498
    180 HD1         2.0870   28.6690   53.0170 H       2  HIS2        0.1672
    181 N          -5.1440   29.8700   42.8360 N.3     1  ALA1       -0.2380
    182 CA         -4.7580   28.4880   43.1130 C.3     1  ALA1        0.1448
    183 C          -5.3870   27.9190   44.3850 C.2     1  ALA1        0.2383
    184 O          -5.6370   28.6510   45.3580 O.2     1  ALA1       -0.2736
    185 CB         -3.2520   28.3820   43.2030 C.3     1  ALA1        0.0283
    186 H          -4.5040   30.5750   43.0580 H       1  ALA1        0.1418
    187 N          -5.6410   26.6150   44.3800 N.am    2  LEU2       -0.2972
    188 CA         -6.1950   25.9400   45.5480 C.3     2  LEU2        0.1486
    189 C          -5.1620   26.0190   46.6750 C.2     2  LEU2        0.2406
    190 O          -5.5270   26.0860   47.8500 O.2     2  LEU2       -0.2733
    191 CB         -6.5100   24.4760   45.2340 C.3     2  LEU2        0.0290
    192 CG         -6.9270   23.6150   46.4280 C.3     2  LEU2        0.0021
    193 CD2        -8.2770   24.0770   46.9660 C.3     2  LEU2        0.0001
    194 CD1        -6.9870   22.1470   46.0150 C.3     2  LEU2        0.0001
    195 H          -5.4490   26.0950   43.5810 H       2  LEU2        0.1499
    196 N          -3.8700   26.0180   46.3140 N.am    3  MET3       -0.2970
    197 CA         -2.7950   26.1130   47.3020 C.3     3  MET3        0.1494
    198 C          -2.5030   27.5390   47.7940 C.2     3  MET3        0.2407
    199 O          -1.5180   27.7730   48.4990 O.2     3  MET3       -0.2733
    200 CB         -1.5070   25.4350   46.8130 C.3     3  MET3        0.0406
    201 CG         -1.6350   23.9240   46.6030 C.3     3  MET3        0.0598
    202 SD         -2.4340   23.0420   47.9620 S.3     3  MET3       -0.1393
    203 CE         -1.2890   23.3560   49.2690 C.3     3  MET3        0.0692
    204 H          -3.6170   25.8920   45.3640 H       3  MET3        0.1499
    205 N          -3.3450   28.4920   47.4060 N.am    4  PHE4       -0.2967
    206 CA         -3.2040   29.8660   47.8820 C.3     4  PHE4        0.1532
    207 C          -3.5940   29.7250   49.3610 C.2     4  PHE4        0.2442
    208 O          -4.5950   29.0800   49.6810 O.2     4  PHE4       -0.2731
    209 CB         -4.1990   30.7780   47.1560 C.3     4  PHE4        0.0553
    210 CG         -3.9380   32.2430   47.3560 C.ar    4  PHE4       -0.0200
    211 CD1        -2.7130   32.7940   46.9930 C.ar    4  PHE4       -0.0042
    212 CD2        -4.9220   33.0730   47.8820 C.ar    4  PHE4       -0.0042
    213 CE1        -2.4670   34.1580   47.1470 C.ar    4  PHE4       -0.0003
    214 CE2        -4.6900   34.4380   48.0400 C.ar    4  PHE4       -0.0003
    215 CZ         -3.4570   34.9820   47.6710 C.ar    4  PHE4       -0.0000
    216 H          -4.1130   28.2780   46.8350 H       4  PHE4        0.1499
    217 N          -2.8200   30.3220   50.2790 N.am    5  PRO5       -0.2717
    218 CA         -3.1080   30.2270   51.7170 C.3     5  PRO5        0.1518
    219 C          -4.3430   30.9260   52.3280 C.2     5  PRO5        0.2409
    220 O          -4.4250   31.0580   53.5490 O.2     5  PRO5       -0.2733
    221 CB         -1.8100   30.7290   52.3450 C.3     5  PRO5        0.0310
    222 CG         -1.3710   31.7740   51.3750 C.3     5  PRO5        0.0237
    223 CD         -1.5920   31.0990   50.0420 C.3     5  PRO5        0.0939
    224 N          -5.3170   31.3240   51.5170 N.am    6  ILE6       -0.2970
    225 CA         -6.5050   31.9930   52.0430 C.3     6  ILE6        0.1485
    226 C          -7.7540   31.3120   51.5040 C.2     6  ILE6        0.2406
    227 O          -7.8370   30.9810   50.3190 O.2     6  ILE6       -0.2733
    228 CB         -6.5100   33.5110   51.7010 C.3     6  ILE6        0.0269
    229 CG1        -5.2800   34.1860   52.3110 C.3     6  ILE6        0.0021
    230 CG2        -7.7600   34.1920   52.2640 C.3     6  ILE6        0.0022
    231 CD1        -5.0720   35.6100   51.8410 C.3     6  ILE6        0.0001
    232 H          -5.3080   31.1150   50.5640 H       6  ILE6        0.1499
    233 N          -8.6930   31.0480   52.4040 N.am    7  TYR7       -0.2967
    234 CA         -9.9410   30.3790   52.0690 C.3     7  TYR7        0.1530
    235 C         -10.8840   31.1720   51.1640 C.2     7  TYR7        0.2410
    236 O         -11.1140   32.3660   51.3680 O.2     7  TYR7       -0.2733
    237 CB        -10.6760   29.9730   53.3680 C.3     7  TYR7        0.0553
    238 CG        -12.0080   29.2860   53.1400 C.ar    7  TYR7       -0.0198
    239 CD1       -12.0730   27.9180   52.8830 C.ar    7  TYR7       -0.0011
    240 CD2       -13.2040   30.0110   53.1520 C.ar    7  TYR7       -0.0011
    241 CE1       -13.2880   27.2940   52.6370 C.ar    7  TYR7        0.0363
    242 CE2       -14.4290   29.3920   52.9090 C.ar    7  TYR7        0.0363
    243 CZ        -14.4630   28.0330   52.6530 C.ar    7  TYR7        0.1337
    244 OH        -15.6720   27.4040   52.4390 O.3     7  TYR7       -0.5055
    245 H          -8.5410   31.3190   53.3360 H       7  TYR7        0.1499
    246 HH        -15.5200   26.5560   52.0190 H       7  TYR7        0.2922
    247 N         -11.4260   30.4780   50.1660 N.am    8  THR8       -0.2961
    248 CA        -12.4030   31.0260   49.2400 C.3     8  THR8        0.1640
    249 C         -13.3670   29.8870   48.9200 C.2     8  THR8        0.2292
    250 O         -12.9250   28.7500   48.7370 O.2     8  THR8       -0.2864
    251 CB        -11.7400   31.4940   47.9070 C.3     8  THR8        0.1360
    252 OG1       -10.8820   32.6080   48.1760 O.3     8  THR8       -0.3823
    253 CG2       -12.8030   31.9090   46.8960 C.3     8  THR8        0.0340
    254 H         -11.1920   29.5460   50.0110 H       8  THR8        0.1499
    255 HG1        -9.9940   32.2760   48.3900 H       8  THR8        0.2104
@<TRIPOS>UNITY_ATOM_ATTR
145 1
charge -1
166 1
charge -1
@<TRIPOS>BOND
     1     1     2    1
     2     1     7    1
     3     2     5    1
     4     2     3    1
     5     3     9   am
     6     3     4    2
     7     5     6    1
     8     6     8    1
     9     9    13    1
    10     9    10    1
    11    10    11    1
    12    11    12    2
    13    11    14   am
    14    14    15    1
    15    14    22    1
    16    15    16    1
    17    15    18    1
    18    16    23   am
    19    16    17    2
    20    18    19    1
    21    19    20    1
    22    19    21    1
    23    23    31    1
    24    23    24    1
    25    24    27    1
    26    24    25    1
    27    25    32   am
    28    25    26    2
    29    27    28    1
    30    28    29    1
    31    28    30    1
    32    32    37    1
    33    32    33    1
    34    33    36    1
    35    33    34    1
    36    34    35    2
    37    34    38   am
    38    38    39    1
    39    38    48    1
    40    39    40    1
    41    39    42    1
    42    40    50   am
    43    40    41    2
    44    42    43    1
    45    43    45   ar
    46    43    44   ar
    47    44    49    1
    48    44    46   ar
    49    45    47   ar
    50    46    47   ar
    51    50    51    1
    52    50    55    1
    53    51    54    1
    54    51    52    1
    55    52    53    2
    56    56    57    1
    57    56    70    1
    58    57    58    1
    59    57    60    1
    60    58    59    2
    61    60    61    1
    62    61    63   ar
    63    61    62   ar
    64    62    64   ar
    65    63    66   ar
    66    63    65   ar
    67    64    65   ar
    68    64    71    1
    69    65    67   ar
    70    66    68   ar
    71    67    69   ar
    72    68    69   ar
    73    72    73    1
    74    72    84    1
    75    73    74    1
    76    73    76    1
    77    74    86   am
    78    74    75    2
    79    76    77    1
    80    77    78   ar
    81    77    79   ar
    82    78    80   ar
    83    79    81   ar
    84    80    82   ar
    85    81    82   ar
    86    82    83    1
    87    83    85    1
    88    86    87    1
    89    86    94    1
    90    87    90    1
    91    87    88    1
    92    88    89    2
    93    90    91    1
    94    91    92    2
    95    91    93   am
    96    93    95    1
    97    93    96    1
    98    97    98    1
    99    97   105    1
   100    98   101    1
   101    98    99    1
   102    99   100    2
   103    99   106   am
   104   101   102    1
   105   102   104    1
   106   102   103    1
   107   106   113    1
   108   106   107    1
   109   107   108    1
   110   107   110    1
   111   108   114   am
   112   108   109    2
   113   110   112    1
   114   110   111    1
   115   114   119    1
   116   114   115    1
   117   115   116    1
   118   115   118    1
   119   116   120   am
   120   116   117    2
   121   120   121    1
   122   120   125    1
   123   121   124    1
   124   121   122    1
   125   122   123    2
   126   122   126   am
   127   126   127    1
   128   126   136    1
   129   127   130    1
   130   127   128    1
   131   128   129    2
   132   128   138   am
   133   130   131    1
   134   131   132   ar
   135   131   133   ar
   136   132   137    1
   137   132   134   ar
   138   133   135   ar
   139   134   135   ar
   140   138   147    1
   141   138   139    1
   142   139   140    1
   143   139   142    1
   144   140   141    2
   145   142   143    1
   146   143   144    1
   147   144   146   ar
   148   144   145   ar
   149   148   158    1
   150   148   149    1
   151   149   150    1
   152   149   152    1
   153   150   151    2
   154   152   153    1
   155   153   154   ar
   156   153   155   ar
   157   154   159    1
   158   154   156   ar
   159   155   157   ar
   160   156   157   ar
   161   160   168    1
   162   160   161    1
   163   161   162    1
   164   161   164    1
   165   162   163    2
   166   162   169   am
   167   164   165    1
   168   165   167   ar
   169   165   166   ar
   170   169   170    1
   171   169   179    1
   172   170   171    1
   173   170   173    1
   174   171   172    2
   175   173   174    1
   176   174   176   ar
   177   174   175   ar
   178   175   180    1
   179   175   177   ar
   180   176   178   ar
   181   177   178   ar
   182   181   186    1
   183   181   182    1
   184   182   185    1
   185   182   183    1
   186   183   187   am
   187   183   184    2
   188   187   195    1
   189   187   188    1
   190   188   191    1
   191   188   189    1
   192   189   196   am
   193   189   190    2
   194   191   192    1
   195   192   194    1
   196   192   193    1
   197   196   204    1
   198   196   197    1
   199   197   200    1
   200   197   198    1
   201   198   205   am
   202   198   199    2
   203   200   201    1
   204   201   202    1
   205   202   203    1
   206   205   216    1
   207   205   206    1
   208   206   209    1
   209   206   207    1
   210   207   208    2
   211   207   217   am
   212   209   210    1
   213   210   211   ar
   214   210   212   ar
   215   211   213   ar
   216   212   214   ar
   217   213   215   ar
   218   214   215   ar
   219   217   223    1
   220   217   218    1
   221   218   219    1
   222   218   221    1
   223   219   224   am
   224   219   220    2
   225   221   222    1
   226   222   223    1
   227   224   232    1
   228   224   225    1
   229   225   226    1
   230   225   228    1
   231   226   227    2
   232   226   233   am
   233   228   230    1
   234   228   229    1
   235   229   231    1
   236   233   234    1
   237   233   245    1
   238   234   235    1
   239   234   237    1
   240   235   247   am
   241   235   236    2
   242   237   238    1
   243   238   239   ar
   244   238   240   ar
   245   239   241   ar
   246   240   242   ar
   247   241   243   ar
   248   242   243   ar
   249   243   244    1
   250   244   246    1
   251   247   248    1
   252   247   254    1
   253   248   251    1
   254   248   249    1
   255   249   250    2
   256   251   253    1
   257   251   252    1
   258   252   255    1
