@<TRIPOS>MOLECULE
./1br6/protein.pdb
 282 274 0 0 0
SMALL
GASTEIGER

@<TRIPOS>ATOM
      1 N         -11.5490    7.7710   15.5830 N.3     1  LEU1       -0.1245
      2 CA        -10.5570    7.3540   16.5570 C.3     1  LEU1        0.1561
      3 C         -10.2570    8.4370   17.5860 C.2     1  LEU1        0.2260
      4 O         -10.5140    9.6120   17.2790 O.2     1  LEU1       -0.2867
      5 CB         -9.3480    6.9560   15.7620 C.3     1  LEU1        0.0270
      6 CG         -8.9100    5.5040   15.8950 C.3     1  LEU1        0.0019
      7 CD2       -10.0660    4.5520   16.1760 C.3     1  LEU1        0.0001
      8 CD1        -8.1580    5.1900   14.6400 C.3     1  LEU1        0.0001
      9 N          -4.7000    6.0780   18.6210 N.3     1  THR1       -0.1203
     10 CA         -5.1170    7.2060   17.7870 C.3     1  THR1        0.1994
     11 C          -5.1670    6.8940   16.2980 C.2     1  THR1        0.2618
     12 O          -5.8570    7.5360   15.5080 O.2     1  THR1       -0.2717
     13 CB         -4.1860    8.4630   17.9590 C.3     1  THR1        0.1784
     14 OG1        -2.8800    8.1090   17.5020 O.3     1  THR1       -0.2211
     15 CG2        -4.1200    8.9400   19.4050 C.3     1  THR1        0.0376
     16 N          -4.3820    5.9220   15.8720 N.am    2  ASN2       -0.1960
     17 CA         -4.2670    5.6920   14.4470 C.3     2  ASN2        0.1819
     18 C          -4.1160    4.2280   14.1070 C.2     2  ASN2        0.2621
     19 O          -3.8650    3.9210   12.9340 O.2     2  ASN2       -0.2715
     20 CB         -3.0550    6.4920   13.9140 C.3     2  ASN2        0.1195
     21 CG         -1.7400    6.1160   14.6000 C.2     2  ASN2        0.2630
     22 OD1        -1.6780    5.3070   15.5520 O.2     2  ASN2       -0.2716
     23 ND2        -0.6370    6.6760   14.1500 N.am    2  ASN2       -0.0877
     24 N          -4.2590    3.3520   15.1220 N.am    3  ALA3       -0.1963
     25 CA         -4.1330    1.8950   15.0320 C.3     3  ALA3        0.1728
     26 C          -2.7880    1.4430   14.4670 C.2     3  ALA3        0.2616
     27 O          -2.6220    0.3340   13.9570 O.2     3  ALA3       -0.2715
     28 CB         -5.2420    1.3120   14.1570 C.3     3  ALA3        0.0334
     29 N          -1.7650    2.2650   14.6070 N.am    4  TYR4       -0.1960
     30 CA         -0.4590    1.9830   14.0600 C.3     4  TYR4        0.1771
     31 C           0.2800    1.0320   15.0090 C.2     4  TYR4        0.2619
     32 O           0.2040    1.1870   16.2310 O.2     4  TYR4       -0.2715
     33 CB          0.2040    3.3530   13.9180 C.3     4  TYR4        0.0574
     34 CG          1.5460    3.4700   13.2020 C.ar    4  TYR4       -0.0198
     35 CD2         2.7340    3.2340   13.9180 C.ar    4  TYR4       -0.0009
     36 CD1         1.5860    3.8910   11.8680 C.ar    4  TYR4       -0.0009
     37 CE2         3.9640    3.4040   13.2960 C.ar    4  TYR4        0.0417
     38 CE1         2.8190    4.0630   11.2430 C.ar    4  TYR4        0.0417
     39 CZ          3.9960    3.8130   11.9660 C.ar    4  TYR4        0.1957
     40 OH          5.2400    4.0150   11.3730 O.3     4  TYR4       -0.2866
     41 N           1.0300    0.0600   14.4920 N.am    5  VAL5       -0.1977
     42 CA          1.8090   -0.8560   15.3070 C.3     5  VAL5        0.1596
     43 C           3.1540   -0.1430   15.5640 C.2     5  VAL5        0.2287
     44 O           3.9620    0.0620   14.6410 O.2     5  VAL5       -0.2864
     45 CB          2.0470   -2.1780   14.5430 C.3     5  VAL5        0.0276
     46 CG2         2.8780   -3.1300   15.4090 C.3     5  VAL5        0.0022
     47 CG1         0.6930   -2.7650   14.1250 C.3     5  VAL5        0.0022
     48 N           9.6860    1.0300   16.6070 N.3     1  PHE1       -0.1241
     49 CA         10.0510    1.8220   15.4400 C.3     1  PHE1        0.1605
     50 C          10.3700    3.2180   15.9810 C.2     1  PHE1        0.2264
     51 O           9.8360    3.6560   17.0140 O.2     1  PHE1       -0.2867
     52 CB          8.9030    1.9450   14.4670 C.3     1  PHE1        0.0534
     53 CG          8.5830    0.6470   13.7600 C.ar    1  PHE1       -0.0203
     54 CD1         9.5500    0.0060   12.9640 C.ar    1  PHE1       -0.0042
     55 CD2         7.3100    0.0810   13.8900 C.ar    1  PHE1       -0.0042
     56 CE1         9.2310   -1.1910   12.3080 C.ar    1  PHE1       -0.0003
     57 CE2         7.0010   -1.1130   13.2270 C.ar    1  PHE1       -0.0003
     58 CZ          7.9630   -1.7450   12.4430 C.ar    1  PHE1       -0.0000
     59 N           8.4190    9.5640   15.6490 N.3     1  ASP1       -0.1241
     60 CA          8.7050   10.7300   14.8300 C.3     1  ASP1        0.1616
     61 C           8.3540   12.0900   15.4310 C.2     1  ASP1        0.2264
     62 O           8.0380   13.0490   14.7330 O.2     1  ASP1       -0.2867
     63 CB          8.0060   10.5300   13.4810 C.3     1  ASP1        0.0687
     64 CG          6.4950   10.3390   13.5090 C.2     1  ASP1        0.0522
     65 OD2         5.8470   10.5980   14.5300 O.co2   1  ASP1       -0.5491
     66 OD1         5.9670    9.9380   12.4750 O.co2   1  ASP1       -0.5491
     67 N          11.7570    4.4450   10.8500 N.3     1  GLY1       -0.1210
     68 CA         10.3390    4.5540   11.1180 C.3     1  GLY1        0.1956
     69 C           9.6250    3.3170   10.5750 C.2     1  GLY1        0.2612
     70 O          10.1950    2.5360    9.8130 O.2     1  GLY1       -0.2717
     71 N           8.3520    3.1630   10.9040 N.am    2  GLY2       -0.1942
     72 CA          7.6710    1.9360   10.5530 C.3     2  GLY2        0.2014
     73 C           6.6590    2.0540    9.4490 C.2     2  GLY2        0.2639
     74 O           5.7770    1.2050    9.3490 O.2     2  GLY2       -0.2714
     75 N           6.7750    3.0650    8.6090 N.am    3  ASN3       -0.1958
     76 CA          5.8040    3.2520    7.5420 C.3     3  ASN3        0.1819
     77 C           6.1000    2.2860    6.4010 C.2     3  ASN3        0.2621
     78 O           7.2750    1.8900    6.2050 O.2     3  ASN3       -0.2715
     79 CB          5.8630    4.6810    7.0610 C.3     3  ASN3        0.1195
     80 CG          7.2580    5.1320    6.6660 C.2     3  ASN3        0.2630
     81 OD1         7.9460    4.5260    5.8560 O.2     3  ASN3       -0.2716
     82 ND2         7.7670    6.2340    7.1860 N.am    3  ASN3       -0.0877
     83 N           5.0800    1.9250    5.6030 N.am    4  TYR4       -0.1960
     84 CA          5.2160    0.9600    4.4940 C.3     4  TYR4        0.1771
     85 C           6.3850    1.2330    3.5640 C.2     4  TYR4        0.2619
     86 O           7.1120    0.3610    3.0800 O.2     4  TYR4       -0.2715
     87 CB          3.9950    0.9260    3.5970 C.3     4  TYR4        0.0574
     88 CG          2.7940    0.2260    4.2200 C.ar    4  TYR4       -0.0198
     89 CD2         2.9870   -0.9550    4.9480 C.ar    4  TYR4       -0.0009
     90 CD1         1.5040    0.7480    4.0620 C.ar    4  TYR4       -0.0009
     91 CE2         1.8940   -1.6030    5.5100 C.ar    4  TYR4        0.0417
     92 CE1         0.4100    0.0870    4.6250 C.ar    4  TYR4        0.0417
     93 CZ          0.6190   -1.0840    5.3420 C.ar    4  TYR4        0.1957
     94 OH         -0.4480   -1.8040    5.8320 O.3     4  TYR4       -0.2866
     95 N           6.5820    2.5260    3.4390 N.am    5  ASP5       -0.1973
     96 CA          7.5810    3.1720    2.6110 C.3     5  ASP5        0.1651
     97 C           8.9960    2.6030    2.9740 C.2     5  ASP5        0.2291
     98 O           9.7530    2.0490    2.1570 O.2     5  ASP5       -0.2864
     99 CB          7.3380    4.7270    2.8940 C.3     5  ASP5        0.0714
    100 CG          5.9270    5.2730    3.3800 C.2     5  ASP5        0.0525
    101 OD1         4.8680    4.6200    3.2930 O.co2   5  ASP5       -0.5491
    102 OD2         5.8780    6.3940    3.9010 O.co2   5  ASP5       -0.5491
    103 N           9.4790    0.0210    5.3020 N.3     1  LEU1       -0.1245
    104 CA          9.3630   -1.4100    5.4900 C.3     1  LEU1        0.1561
    105 C           9.6150   -2.2250    4.2120 C.2     1  LEU1        0.2260
    106 O          10.4310   -3.1570    4.1940 O.2     1  LEU1       -0.2867
    107 CB          7.9690   -1.6370    6.1040 C.3     1  LEU1        0.0270
    108 CG          7.8560   -2.0880    7.5850 C.3     1  LEU1        0.0019
    109 CD2         8.9780   -1.5190    8.4460 C.3     1  LEU1        0.0001
    110 CD1         6.5140   -1.6520    8.1110 C.3     1  LEU1        0.0001
    111 N           4.3960   -4.6670   -1.1250 N.3     1  ARG1       -0.1245
    112 CA          3.1980   -5.3020   -0.5700 C.3     1  ARG1        0.1563
    113 C           2.4410   -6.1000   -1.6370 C.2     1  ARG1        0.2260
    114 O           1.9020   -7.1700   -1.3600 O.2     1  ARG1       -0.2867
    115 CB          2.2650   -4.2470   -0.0050 C.3     1  ARG1        0.0307
    116 CG          2.5020   -3.8760    1.4480 C.3     1  ARG1        0.0489
    117 CD          1.6040   -2.6910    1.8010 C.3     1  ARG1        0.2205
    118 NE          2.2160   -1.4940    1.2610 N.pl3   1  ARG1       -0.0865
    119 CZ          1.5480   -0.3850    0.9520 C.cat   1  ARG1        0.5346
    120 NH2         0.2400   -0.2070    1.2050 N.pl3   1  ARG1        0.1354
    121 NH1         2.2810    0.6110    0.4670 N.pl3   1  ARG1        0.1354
    122 N           0.7330   -5.8690    9.9840 N.3     1  ILE1       -0.1245
    123 CA          0.0610   -4.5930    9.8800 C.3     1  ILE1        0.1561
    124 C          -1.1890   -4.7350    9.0510 C.2     1  ILE1        0.2260
    125 O          -2.2500   -4.3300    9.5010 O.2     1  ILE1       -0.2867
    126 CB          1.0620   -3.5530    9.2810 C.3     1  ILE1        0.0252
    127 CG1         2.1320   -3.2130   10.3340 C.3     1  ILE1        0.0019
    128 CG2         0.3500   -2.2650    8.9240 C.3     1  ILE1        0.0019
    129 CD1         3.4150   -2.6100    9.6990 C.3     1  ILE1        0.0001
    130 N          -3.9760   -4.1250   11.7440 N.3     1  SER1       -0.1202
    131 CA         -4.3280   -2.7050   11.7230 C.3     1  SER1        0.2020
    132 C          -5.2290   -2.3330   10.5600 C.2     1  SER1        0.2618
    133 O          -6.2250   -1.6420   10.7580 O.2     1  SER1       -0.2717
    134 CB         -3.0950   -1.8270   11.6310 C.3     1  SER1        0.2103
    135 OG         -2.2290   -2.1200   12.6960 O.3     1  SER1       -0.2182
    136 N          -4.9140   -2.7850    9.3470 N.am    2  GLU2       -0.1979
    137 CA         -5.7150   -2.4470    8.1950 C.3     2  GLU2        0.1600
    138 C          -7.0740   -3.1090    8.1810 C.2     2  GLU2        0.2287
    139 O          -8.0580   -2.5170    7.7400 O.2     2  GLU2       -0.2864
    140 CB         -4.9860   -2.8140    6.9000 C.3     2  GLU2        0.0356
    141 CG         -3.6530   -2.1140    6.7180 C.3     2  GLU2        0.0439
    142 CD         -3.6610   -0.5940    6.5660 C.2     2  GLU2        0.0504
    143 OE2        -4.6470    0.0800    6.8580 O.co2   2  GLU2       -0.5492
    144 OE1        -2.6340   -0.0740    6.1490 O.co2   2  GLU2       -0.5492
    145 N          -9.0250   -1.1070   10.4190 N.3     1  ARG1       -0.1231
    146 CA         -9.3540    0.1760    9.8140 C.3     1  ARG1        0.1694
    147 C         -10.4010    0.0930    8.7130 C.2     1  ARG1        0.2592
    148 O         -11.1980    1.0380    8.5470 O.2     1  ARG1       -0.2718
    149 CB         -8.1010    0.8290    9.2280 C.3     1  ARG1        0.0321
    150 CG         -7.0260    1.2610   10.2280 C.3     1  ARG1        0.0489
    151 CD         -5.8690    1.8320    9.4460 C.3     1  ARG1        0.2205
    152 NE         -4.8190    2.3090   10.3280 N.pl3   1  ARG1       -0.0865
    153 CZ         -3.5290    1.9590   10.1890 C.cat   1  ARG1        0.5346
    154 NH1        -3.1510    1.1210    9.2290 N.pl3   1  ARG1        0.1354
    155 NH2        -2.6190    2.4330   11.0440 N.pl3   1  ARG1        0.1354
    156 N         -10.4740   -1.0240    7.9600 N.am    2  PHE2       -0.1976
    157 CA        -11.3410   -1.1210    6.7950 C.3     2  PHE2        0.1639
    158 C         -12.1190   -2.4240    6.7340 C.2     2  PHE2        0.2290
    159 O         -11.5270   -3.5110    6.6070 O.2     2  PHE2       -0.2864
    160 CB        -10.5510   -1.0510    5.5180 C.3     2  PHE2        0.0560
    161 CG         -9.7620    0.2220    5.2960 C.ar    2  PHE2       -0.0200
    162 CD1       -10.3750    1.2740    4.6090 C.ar    2  PHE2       -0.0042
    163 CD2        -8.4120    0.2730    5.6580 C.ar    2  PHE2       -0.0042
    164 CE1        -9.6260    2.3940    4.2650 C.ar    2  PHE2       -0.0003
    165 CE2        -7.6620    1.3910    5.3150 C.ar    2  PHE2       -0.0003
    166 CZ         -8.2750    2.4470    4.6230 C.ar    2  PHE2       -0.0000
    167 N          -6.5330    1.6180   -0.8030 N.3     1  LEU1       -0.1231
    168 CA         -7.2140    2.0330    0.4150 C.3     1  LEU1        0.1693
    169 C          -6.2020    2.1940    1.5490 C.2     1  LEU1        0.2592
    170 O          -6.2890    3.1730    2.2930 O.2     1  LEU1       -0.2718
    171 CB         -8.2800    0.9970    0.8370 C.3     1  LEU1        0.0284
    172 CG         -9.5420    0.8660    0.0090 C.3     1  LEU1        0.0019
    173 CD2       -10.2970   -0.3570    0.4950 C.3     1  LEU1        0.0001
    174 CD1       -10.4050    2.1330    0.1310 C.3     1  LEU1        0.0001
    175 N          -5.1870    1.3100    1.6610 N.am    2  GLU2       -0.1966
    176 CA         -4.1490    1.4220    2.7060 C.3     2  GLU2        0.1731
    177 C          -3.3690    2.7160    2.5280 C.2     2  GLU2        0.2616
    178 O          -3.0700    3.4020    3.4980 O.2     2  GLU2       -0.2715
    179 CB         -3.1070    0.2850    2.6790 C.3     2  GLU2        0.0370
    180 CG         -3.6820   -1.0950    2.9830 C.3     2  GLU2        0.0440
    181 CD         -2.7890   -2.2980    2.6880 C.2     2  GLU2        0.0504
    182 OE1        -1.7170   -2.1230    2.1260 O.co2   2  GLU2       -0.5492
    183 OE2        -3.1570   -3.4250    3.0160 O.co2   2  GLU2       -0.5492
    184 N          -3.0240    3.1240    1.3180 N.am    3  ASN3       -0.1958
    185 CA         -2.3470    4.4020    1.1640 C.3     3  ASN3        0.1819
    186 C          -3.2800    5.5800    1.3680 C.2     3  ASN3        0.2622
    187 O          -2.8480    6.6330    1.8270 O.2     3  ASN3       -0.2715
    188 CB         -1.7440    4.5560   -0.2120 C.3     3  ASN3        0.1195
    189 CG         -0.7250    3.5020   -0.5810 C.2     3  ASN3        0.2630
    190 OD1        -0.6450    3.1630   -1.7520 O.2     3  ASN3       -0.2716
    191 ND2         0.0790    2.8900    0.2780 N.am    3  ASN3       -0.0877
    192 N          -4.5750    5.4420    1.0710 N.am    4  SER4       -0.1936
    193 CA         -5.5260    6.5380    1.1430 C.3     4  SER4        0.2055
    194 C          -6.1740    6.8310    2.4940 C.2     4  SER4        0.2643
    195 O          -6.7550    7.9180    2.6360 O.2     4  SER4       -0.2714
    196 CB         -6.6160    6.2830    0.1290 C.3     4  SER4        0.2130
    197 OG         -6.1060    6.1650   -1.1810 O.3     4  SER4       -0.2179
    198 N          -6.0520    5.9840    3.5240 N.am    5  TRP5       -0.1959
    199 CA         -6.7670    6.1400    4.7920 C.3     5  TRP5        0.1768
    200 C          -6.7260    7.5290    5.4000 C.2     5  TRP5        0.2620
    201 O          -7.7830    8.0830    5.7310 O.2     5  TRP5       -0.2715
    202 CB         -6.2460    5.1800    5.8490 C.3     5  TRP5        0.0553
    203 CG         -7.0970    5.0960    7.1150 C.2     5  TRP5       -0.0136
    204 CD1        -8.4200    4.7030    7.0970 C.2     5  TRP5        0.0907
    205 CD2        -6.6520    5.3230    8.3890 C.3     5  TRP5        0.0819
    206 NE1        -8.7960    4.6380    8.3560 N.2     5  TRP5       -0.2482
    207 CE2        -7.7780    4.9910    9.1550 C.2     5  TRP5        0.0665
    208 CE3        -5.4730    5.7140    9.0100 C.2     5  TRP5       -0.0164
    209 CZ2        -7.7240    5.0710   10.5520 C.2     5  TRP5        0.0153
    210 CZ3        -5.4370    5.7800   10.4000 C.2     5  TRP5       -0.0038
    211 CH2        -6.5400    5.4890   11.1710 C.2     5  TRP5        0.0009
    212 N          -5.5560    8.1520    5.5190 N.am    6  GLY6       -0.1940
    213 CA         -5.4720    9.4900    6.1140 C.3     6  GLY6        0.2014
    214 C          -6.2510   10.5240    5.3010 C.2     6  GLY6        0.2639
    215 O          -6.9840   11.3690    5.8300 O.2     6  GLY6       -0.2714
    216 N          -6.1960   10.3510    3.9850 N.am    7  ARG7       -0.1963
    217 CA         -6.7980   11.2950    3.0650 C.3     7  ARG7        0.1729
    218 C          -8.2900   11.1070    3.0300 C.2     7  ARG7        0.2616
    219 O          -8.9880   12.1060    2.9010 O.2     7  ARG7       -0.2715
    220 CB         -6.2460   11.1260    1.6450 C.3     7  ARG7        0.0348
    221 CG         -5.3800   12.3130    1.2800 C.3     7  ARG7        0.0492
    222 CD         -6.0550   13.3160    0.2970 C.3     7  ARG7        0.2205
    223 NE         -7.2430   14.0270    0.7890 N.pl3   7  ARG7       -0.0865
    224 CZ         -7.1930   15.1180    1.5610 C.cat   7  ARG7        0.5346
    225 NH2        -6.0350   15.6500    1.9850 N.pl3   7  ARG7        0.1354
    226 NH1        -8.3430   15.6940    1.9290 N.pl3   7  ARG7        0.1354
    227 N          -8.7550    9.8510    3.1350 N.am    8  LEU8       -0.1963
    228 CA        -10.1710    9.5510    3.2450 C.3     8  LEU8        0.1728
    229 C         -10.6440   10.1200    4.5600 C.2     8  LEU8        0.2616
    230 O         -11.6450   10.8190    4.5350 O.2     8  LEU8       -0.2715
    231 CB        -10.4400    8.0420    3.2310 C.3     8  LEU8        0.0311
    232 CG        -10.3330    7.3510    1.8790 C.3     8  LEU8        0.0022
    233 CD2       -10.4120    5.8510    2.0400 C.3     8  LEU8        0.0001
    234 CD1       -11.4580    7.8580    0.9920 C.3     8  LEU8        0.0001
    235 N          -9.9280    9.9480    5.6760 N.am    9  SER9       -0.1950
    236 CA        -10.3300   10.4770    6.9590 C.3     9  SER9        0.1924
    237 CB        -10.5040   11.9880    6.9180 C.2     9  SER9        0.2314
    238 OG        -11.5290   12.5190    7.3810 O.2     9  SER9       -0.2863
    239 C          -9.2720   10.0380    8.0050 C.3     9  SER9        0.2116
    240 O          -9.1600    8.6160    8.2670 O.3     9  SER9       -0.2180
    241 N         -15.0130    1.5830    4.7860 N.3     1  ILE1       -0.1245
    242 CA        -14.1230    2.0430    5.8320 C.3     1  ILE1        0.1561
    243 C         -14.7340    1.8240    7.2230 C.2     1  ILE1        0.2260
    244 O         -15.9250    2.0250    7.3920 O.2     1  ILE1       -0.2867
    245 CB        -13.7710    3.5600    5.4740 C.3     1  ILE1        0.0252
    246 CG1       -12.8690    4.1330    6.5420 C.3     1  ILE1        0.0019
    247 CG2       -15.0060    4.4470    5.3900 C.3     1  ILE1        0.0019
    248 CD1       -11.8680    5.1930    5.9890 C.3     1  ILE1        0.0001
    249 N         -13.0760    2.7740   10.4890 N.3     1  LEU1       -0.1231
    250 CA        -12.5790    3.6820   11.5160 C.3     1  LEU1        0.1693
    251 C         -11.8250    4.8010   10.7880 C.2     1  LEU1        0.2592
    252 O         -11.2310    4.5440    9.7330 O.2     1  LEU1       -0.2718
    253 CB        -11.5870    2.9640   12.4880 C.3     1  LEU1        0.0284
    254 CG        -11.8770    1.7360   13.3750 C.3     1  LEU1        0.0019
    255 CD1       -10.5910    1.2390   13.9820 C.3     1  LEU1        0.0001
    256 CD2       -12.7110    2.0870   14.5690 C.3     1  LEU1        0.0001
    257 N         -11.8440    6.0310   11.2930 N.am    2  MET2       -0.1965
    258 CA        -11.0590    7.1020   10.7080 C.3     2  MET2        0.1736
    259 C         -10.2000    7.7400   11.7860 C.2     2  MET2        0.2616
    260 O         -10.6030    7.7990   12.9510 O.2     2  MET2       -0.2715
    261 CB        -11.8790    8.2430   10.1630 C.3     2  MET2        0.0427
    262 CG        -12.8490    7.9430    9.0490 C.3     2  MET2        0.0599
    263 SD        -13.8640    9.4120    8.7740 S.3     2  MET2       -0.1393
    264 CE        -14.7830    9.6220   10.2720 C.3     2  MET2        0.0692
    265 N          -9.0310    8.2410   11.4340 N.am    3  VAL3       -0.1977
    266 CA         -8.2330    8.9900   12.3870 C.3     3  VAL3        0.1596
    267 C          -8.8920   10.3730   12.5770 C.2     3  VAL3        0.2287
    268 O          -9.5000   10.8930   11.6340 O.2     3  VAL3       -0.2864
    269 CB         -6.7310    9.0370   11.8300 C.3     3  VAL3        0.0276
    270 CG1        -6.6530    9.5460   10.3910 C.3     3  VAL3        0.0022
    271 CG2        -5.8900    9.9300   12.7110 C.3     3  VAL3        0.0022
    272 N          -9.3230   14.2180   12.6480 N.3     1  ARG1       -0.1245
    273 CA         -8.7450   15.3140   11.8840 C.3     1  ARG1        0.1563
    274 C          -9.2860   16.6550   12.3380 C.2     1  ARG1        0.2260
    275 O          -8.5490   17.6270   12.4580 O.2     1  ARG1       -0.2867
    276 CB         -9.0530   15.1930   10.4080 C.3     1  ARG1        0.0307
    277 CG         -7.8760   14.7870    9.5530 C.3     1  ARG1        0.0489
    278 CD         -7.5340   13.3160    9.6570 C.3     1  ARG1        0.2205
    279 NE         -6.3960   12.9520    8.8180 N.pl3   1  ARG1       -0.0865
    280 CZ         -5.1530   12.8090    9.2910 C.cat   1  ARG1        0.5346
    281 NH2        -4.8610   13.0080   10.5840 N.pl3   1  ARG1        0.1354
    282 NH1        -4.2000   12.3790    8.4590 N.pl3   1  ARG1        0.1354
@<TRIPOS>UNITY_ATOM_ATTR
65 1
charge -1
101 1
charge -1
143 1
charge -1
182 1
charge -1
@<TRIPOS>BOND
     1     1     2    1
     2     2     5    1
     3     2     3    1
     4     3     4    2
     5     5     6    1
     6     6     8    1
     7     6     7    1
     8     9    10    1
     9    10    11    1
    10    10    13    1
    11    11    12    2
    12    11    16   am
    13    13    14    1
    14    13    15    1
    15    16    17    1
    16    17    20    1
    17    17    18    1
    18    18    19    2
    19    18    24   am
    20    20    21    1
    21    21    23   am
    22    21    22    2
    23    24    25    1
    24    25    28    1
    25    25    26    1
    26    26    27    2
    27    26    29   am
    28    29    30    1
    29    30    33    1
    30    30    31    1
    31    31    41   am
    32    31    32    2
    33    33    34    1
    34    34    36   ar
    35    34    35   ar
    36    35    37   ar
    37    36    38   ar
    38    37    39   ar
    39    38    39   ar
    40    39    40    1
    41    41    42    1
    42    42    45    1
    43    42    43    1
    44    43    44    2
    45    45    47    1
    46    45    46    1
    47    48    49    1
    48    49    52    1
    49    49    50    1
    50    50    51    2
    51    52    53    1
    52    53    54   ar
    53    53    55   ar
    54    54    56   ar
    55    55    57   ar
    56    56    58   ar
    57    57    58   ar
    58    59    60    1
    59    60    63    1
    60    60    61    1
    61    61    62    2
    62    63    64    1
    63    64    66   ar
    64    64    65   ar
    65    67    68    1
    66    68    69    1
    67    69    70    2
    68    69    71   am
    69    71    72    1
    70    72    73    1
    71    73    75   am
    72    73    74    2
    73    75    76    1
    74    76    77    1
    75    76    79    1
    76    77    83   am
    77    77    78    2
    78    79    80    1
    79    80    81    2
    80    80    82   am
    81    83    84    1
    82    84    85    1
    83    84    87    1
    84    85    86    2
    85    85    95   am
    86    87    88    1
    87    88    90   ar
    88    88    89   ar
    89    89    91   ar
    90    90    92   ar
    91    91    93   ar
    92    92    93   ar
    93    93    94    1
    94    95    96    1
    95    96    99    1
    96    96    97    1
    97    97    98    2
    98    99   100    1
    99   100   101   ar
   100   100   102   ar
   101   103   104    1
   102   104   105    1
   103   104   107    1
   104   105   106    2
   105   107   108    1
   106   108   110    1
   107   108   109    1
   108   111   112    1
   109   112   113    1
   110   112   115    1
   111   113   114    2
   112   115   116    1
   113   116   117    1
   114   117   118    1
   115   118   119    2
   116   119   121    1
   117   119   120    1
   118   122   123    1
   119   123   124    1
   120   123   126    1
   121   124   125    2
   122   126   128    1
   123   126   127    1
   124   127   129    1
   125   130   131    1
   126   131   132    1
   127   131   134    1
   128   132   136   am
   129   132   133    2
   130   134   135    1
   131   136   137    1
   132   137   140    1
   133   137   138    1
   134   138   139    2
   135   140   141    1
   136   141   142    1
   137   142   144   ar
   138   142   143   ar
   139   145   146    1
   140   146   147    1
   141   146   149    1
   142   147   156   am
   143   147   148    2
   144   149   150    1
   145   150   151    1
   146   151   152    1
   147   152   153    2
   148   153   154    1
   149   153   155    1
   150   156   157    1
   151   157   160    1
   152   157   158    1
   153   158   159    2
   154   160   161    1
   155   161   162   ar
   156   161   163   ar
   157   162   164   ar
   158   163   165   ar
   159   164   166   ar
   160   165   166   ar
   161   167   168    1
   162   168   171    1
   163   168   169    1
   164   169   175   am
   165   169   170    2
   166   171   172    1
   167   172   174    1
   168   172   173    1
   169   175   176    1
   170   176   177    1
   171   176   179    1
   172   177   184   am
   173   177   178    2
   174   179   180    1
   175   180   181    1
   176   181   182   ar
   177   181   183   ar
   178   184   185    1
   179   185   188    1
   180   185   186    1
   181   186   192   am
   182   186   187    2
   183   188   189    1
   184   189   190    2
   185   189   191   am
   186   192   193    1
   187   193   196    1
   188   193   194    1
   189   194   195    2
   190   194   198   am
   191   196   197    1
   192   198   199    1
   193   199   200    1
   194   199   202    1
   195   200   212   am
   196   200   201    2
   197   202   203    1
   198   203   204    2
   199   203   205    1
   200   204   206    1
   201   205   208    1
   202   205   207    1
   203   206   207    2
   204   207   209    1
   205   208   210    2
   206   209   211    2
   207   210   211    1
   208   212   213    1
   209   213   214    1
   210   214   216   am
   211   214   215    2
   212   216   217    1
   213   217   220    1
   214   217   218    1
   215   218   219    2
   216   218   227   am
   217   220   221    1
   218   221   222    1
   219   222   223    1
   220   223   224    2
   221   224   226    1
   222   224   225    1
   223   227   228    1
   224   228   231    1
   225   228   229    1
   226   229   230    2
   227   229   235   am
   228   231   232    1
   229   232   234    1
   230   232   233    1
   231   235   236    1
   232   236   237    1
   233   236   239    1
   234   237   238    2
   235   239   240    1
   236   241   242    1
   237   242   245    1
   238   242   243    1
   239   243   244    2
   240   245   247    1
   241   245   246    1
   242   246   248    1
   243   249   250    1
   244   250   251    1
   245   250   253    1
   246   251   252    2
   247   251   257   am
   248   253   254    1
   249   254   255    1
   250   254   256    1
   251   257   258    1
   252   258   261    1
   253   258   259    1
   254   259   265   am
   255   259   260    2
   256   261   262    1
   257   262   263    1
   258   263   264    1
   259   265   266    1
   260   266   269    1
   261   266   267    1
   262   267   268    2
   263   269   270    1
   264   269   271    1
   265   272   273    1
   266   273   276    1
   267   273   274    1
   268   274   275    2
   269   276   277    1
   270   277   278    1
   271   278   279    1
   272   279   280    2
   273   280   282    1
   274   280   281    1
