@<TRIPOS>MOLECULE
./6rsa/ligand.pdb
 31 33 0 0 0
SMALL
GASTEIGER

@<TRIPOS>ATOM
      1  C5'       32.3320   13.2310    5.1080 C.3     1  UVC1        0.0000
      2  O5'       33.5140   12.8460    5.8130 O.3     1  UVC1        0.0000
      3  C4'       31.4720   13.9450    6.1120 C.3     1  UVC1        0.0000
      4  O4'       31.4320   13.0330    7.2580 O.3     1  UVC1        0.0000
      5  C3'       31.8620   15.3730    6.5900 C.3     1  UVC1        0.0000
      6  O3'       31.4880   16.4980    5.7190 O.3     1  UVC1        0.0000
      7  C2'       31.0410   15.3680    7.8540 C.3     1  UVC1        0.0000
      8  O2'       29.7220   15.8340    7.6390 O.3     1  UVC1        0.0000
      9  C1'       30.8990   13.8900    8.3080 C.3     1  UVC1        0.0000
     10  N1        31.9690   13.6610    9.3520 N.ar    1  UVC1        0.0000
     11  O1V       28.2280   17.0980    5.7410 O.3     1  UVC1        0.0000
     12  C2        31.6560   13.9990   10.6120 C.ar    1  UVC1        0.0000
     13  O2        30.5780   14.3910   10.9970 O.2     1  UVC1        0.0000
     14  O2V       30.1590   18.2580    4.7970 O.3     1  UVC1        0.0000
     15  N3        32.6700   13.7320   11.4680 N.ar    1  UVC1        0.0000
     16  O3V       29.9270   18.6250    7.3880 O.3     1  UVC1        0.0000
     17  C4        33.9450   13.2830   11.1760 C.ar    1  UVC1        0.0000
     18  O4        34.7720   13.2010   12.0750 O.2     1  UVC1        0.0000
     19  C5        34.1750   13.0030    9.7950 C.ar    1  UVC1        0.0000
     20  C6        33.1740   13.1820    8.9370 C.ar    1  UVC1        0.0000
     21  V         29.8540   17.2100    6.3660 V       1  UVC1        0.0000
     22  DN3       32.4830   13.9480   12.4650 H       1  UVC1        0.0000
     23 DO5'       34.3220   13.2960    5.3770 H       1  UVC1        0.0000
     24  H5        35.0980   12.6620    9.5510 H       1  UVC1        0.0000
     25  H6        33.3220   13.0090    7.9400 H       1  UVC1        0.0000
     26  H1'       29.9870   13.6810    8.6390 H       1  UVC1        0.0000
     27  H2'       31.5480   16.0160    8.4860 H       1  UVC1        0.0000
     28  H3'       32.8480   15.4960    6.3190 H       1  UVC1        0.0000
     29  H4'       30.5290   14.1480    5.8170 H       1  UVC1        0.0000
     30 H5'1       31.9420   12.4710    4.6420 H       1  UVC1        0.0000
     31 H5'2       32.6880   13.8830    4.4210 H       1  UVC1        0.0000
@<TRIPOS>BOND
     1     1     2    1
     2     1    30    1
     3     1    31    1
     4     1     3    1
     5     3     4    1
     6     3    29    1
     7     3     5    1
     8     4     9    1
     9     5     6    1
    10     5    28    1
    11     5     7    1
    12     6    21    1
    13     7     8    1
    14     7    27    1
    15     7     9    1
    16     8    21    1
    17     9    26    1
    18     9    10    1
    19    10    12   ar
    20    10    20   ar
    21    11    21    1
    22    12    13    2
    23    12    15   ar
    24    14    21    1
    25    15    17   ar
    26    16    21    1
    27    17    18    2
    28    17    19   ar
    29    19    20   ar
    30    19    24    1
    31    20    25    1
    32    23     2    1
    33    15    22    1
