@<TRIPOS>MOLECULE
./3lbz/protein.pdb
 170 164 0 0 0
SMALL
GASTEIGER

@<TRIPOS>ATOM
      1 N          -3.5430   -9.5670    9.8000 N.3     1  ALA1       -0.1245
      2 CA         -2.4360  -10.1020   10.6420 C.3     1  ALA1        0.1562
      3 C          -1.3130   -9.0830   10.7490 C.2     1  ALA1        0.2260
      4 O          -0.7500   -8.8080   11.8530 O.2     1  ALA1       -0.2867
      5 CB         -1.9100  -11.3530   10.0530 C.3     1  ALA1        0.0290
      6 N           0.0380   -7.0770   14.1360 N.3     1  LEU1       -0.1245
      7 CA          1.4650   -6.9680   14.3450 C.3     1  LEU1        0.1561
      8 C           1.9750   -5.5360   14.4170 C.2     1  LEU1        0.2260
      9 O           2.7120   -5.2210   15.3070 O.2     1  LEU1       -0.2867
     10 CB          2.2580   -7.7710   13.3350 C.3     1  LEU1        0.0270
     11 CG          3.6960   -7.9930   13.7940 C.3     1  LEU1        0.0019
     12 CD2         3.7140   -9.0850   14.7960 C.3     1  LEU1        0.0001
     13 CD1         4.5080   -8.3890   12.5730 C.3     1  LEU1        0.0001
     14 N           4.0970  -12.8170   22.1980 N.3     1  VAL1       -0.1245
     15 CA          4.6610  -12.5070   20.9490 C.3     1  VAL1        0.1561
     16 C           5.9350  -13.3170   20.8800 C.2     1  VAL1        0.2260
     17 O           6.1610  -13.9380   19.8740 O.2     1  VAL1       -0.2867
     18 CB          4.9100  -11.0620   20.8010 C.3     1  VAL1        0.0252
     19 CG1         5.7420  -10.8490   19.5950 C.3     1  VAL1        0.0019
     20 CG2         3.5220  -10.2740   20.6750 C.3     1  VAL1        0.0019
     21 N           6.6900  -16.2090   22.2620 N.3     1  MET1       -0.1182
     22 CA          6.2270  -17.5930   22.1490 C.3     1  MET1        0.1917
     23 C           5.6930  -17.9040   20.7840 C.2     1  MET1        0.2634
     24 O           5.9360  -19.0400   20.2570 O.2     1  MET1       -0.2714
     25 CB          5.0340  -17.8650   23.0600 C.2     1  MET1        0.0083
     26 CG          5.2710  -17.7220   24.5160 C.2     1  MET1        0.0282
     27 SD          3.9280  -18.2020   25.6420 S.3     1  MET1       -0.1125
     28 CE          3.7900  -19.9810   25.4420 C.3     1  MET1        0.0742
     29 N           4.9780  -16.9120   20.2140 N.am    2  ALA2       -0.1963
     30 CA          4.4720  -17.0170   18.8120 C.3     2  ALA2        0.1728
     31 C           5.5770  -17.0420   17.7550 C.2     2  ALA2        0.2616
     32 O           5.3780  -17.6870   16.7340 O.2     2  ALA2       -0.2715
     33 CB          3.4710  -15.9430   18.4600 C.3     2  ALA2        0.0334
     34 N           6.6920  -16.3200   18.0200 N.am    3  CYS3       -0.1954
     35 CA          7.8290  -16.2380   17.1650 C.3     3  CYS3        0.1843
     36 C           9.0410  -17.1940   17.4220 C.2     3  CYS3        0.2626
     37 O           9.7870  -17.3900   16.5170 O.2     3  CYS3       -0.2714
     38 CB          8.3700  -14.8620   17.2580 C.3     3  CYS3        0.0997
     39 SG          7.1610  -13.7030   16.6520 S.3     3  CYS3       -0.0797
     40 N           9.2470  -17.7630   18.6080 N.am    4  SER4       -0.1936
     41 CA         10.4340  -18.5390   18.8870 C.3     4  SER4        0.2055
     42 C          10.1800  -19.8750   19.6110 C.2     4  SER4        0.2643
     43 O           9.4980  -19.8770   20.6320 O.2     4  SER4       -0.2714
     44 CB         11.1780  -17.6510   19.8160 C.3     4  SER4        0.2130
     45 OG         12.1430  -18.3040   20.5050 O.3     4  SER4       -0.2179
     46 N          10.7590  -20.9910   19.1480 N.am    5  GLY5       -0.1954
     47 CA         10.5860  -22.3210   19.8160 C.3     5  GLY5        0.1869
     48 C          11.1800  -22.3450   21.2360 C.2     5  GLY5        0.2309
     49 O          10.6560  -23.0150   22.1790 O.2     5  GLY5       -0.2863
     50 N          16.7380   -9.5900   15.9360 N.3     1  LEU1       -0.1245
     51 CA         15.6730  -10.6190   15.9240 C.3     1  LEU1        0.1561
     52 C          14.3570  -10.2210   16.6710 C.2     1  LEU1        0.2260
     53 O          13.3110  -10.6530   16.2730 O.2     1  LEU1       -0.2867
     54 CB         16.1710  -11.9700   16.4040 C.3     1  LEU1        0.0270
     55 CG         17.2270  -12.6050   15.4440 C.3     1  LEU1        0.0019
     56 CD2        17.9340  -13.6640   16.0870 C.3     1  LEU1        0.0001
     57 CD1        16.5650  -13.2240   14.2620 C.3     1  LEU1        0.0001
     58 N          12.5900   -7.9670   14.3210 N.3     1  PHE1       -0.1227
     59 CA         11.9720   -8.7640   13.3140 C.3     1  PHE1        0.1736
     60 C          10.6740   -9.3340   13.7950 C.2     1  PHE1        0.2595
     61 O           9.6900   -9.3020   13.0770 O.2     1  PHE1       -0.2718
     62 CB         12.8980   -9.9090   12.8270 C.3     1  PHE1        0.0547
     63 CG         12.1620  -10.9920   12.1100 C.ar    1  PHE1       -0.0202
     64 CD1        11.7820  -10.8250   10.8160 C.ar    1  PHE1       -0.0042
     65 CD2        11.8430  -12.1870   12.7390 C.ar    1  PHE1       -0.0042
     66 CE1        11.1150  -11.8540   10.1170 C.ar    1  PHE1       -0.0003
     67 CE2        11.1810  -13.2180   12.0680 C.ar    1  PHE1       -0.0003
     68 CZ         10.8300  -13.0330   10.7450 C.ar    1  PHE1       -0.0000
     69 N          10.6190   -9.8430   15.0260 N.am    2  MET2       -0.1965
     70 CA          9.3850  -10.5010   15.5090 C.3     2  MET2        0.1736
     71 C           8.1980   -9.6230   15.4500 C.2     2  MET2        0.2616
     72 O           7.0660  -10.0750   15.1860 O.2     2  MET2       -0.2715
     73 CB          9.5300  -10.9430   16.9240 C.3     2  MET2        0.0427
     74 CG         10.4830  -12.1530   17.1070 C.3     2  MET2        0.0599
     75 SD         10.6480  -12.4600   18.9170 S.3     2  MET2       -0.1393
     76 CE         12.0890  -13.5540   18.9450 C.3     2  MET2        0.0692
     77 N           8.4420   -8.3520   15.6460 N.am    3  TYR3       -0.1974
     78 CA          7.3930   -7.3860   15.7830 C.3     3  TYR3        0.1639
     79 C           7.1780   -6.6070   14.4630 C.2     3  TYR3        0.2290
     80 O           6.2120   -5.8570   14.3610 O.2     3  TYR3       -0.2864
     81 CB          7.7730   -6.3630   16.9150 C.3     3  TYR3        0.0560
     82 CG          7.3910   -6.7560   18.2940 C.ar    3  TYR3       -0.0198
     83 CD2         8.3190   -7.4520   19.1150 C.ar    3  TYR3       -0.0009
     84 CD1         6.1000   -6.4970   18.8000 C.ar    3  TYR3       -0.0009
     85 CE2         7.9810   -7.8590   20.3710 C.ar    3  TYR3        0.0417
     86 CE1         5.7370   -6.9010   20.1160 C.ar    3  TYR3        0.0417
     87 CZ          6.6990   -7.5750   20.8920 C.ar    3  TYR3        0.1957
     88 OH          6.4150   -8.0130   22.1770 O.3     3  TYR3       -0.2866
     89 N           8.3150   -7.9430   11.0860 N.3     1  SER1       -0.1202
     90 CA          8.5560   -8.8100    9.9040 C.3     1  SER1        0.2020
     91 C           9.7580   -8.4190    8.9940 C.2     1  SER1        0.2619
     92 O           9.8540   -8.8410    7.8700 O.2     1  SER1       -0.2717
     93 CB          7.2510   -8.8470    9.0700 C.3     1  SER1        0.2103
     94 OG          6.3020   -9.5090    9.8670 O.3     1  SER1       -0.2182
     95 N          10.6150   -7.5340    9.4740 N.am    2  ARG2       -0.1965
     96 CA         11.7070   -7.0070    8.6800 C.3     2  ARG2        0.1729
     97 C          12.9680   -7.4590    9.3950 C.2     2  ARG2        0.2616
     98 O          13.1500   -7.2170   10.6110 O.2     2  ARG2       -0.2715
     99 CB         11.6680   -5.4670    8.5190 C.3     2  ARG2        0.0348
    100 CG         10.2870   -4.9030    8.0170 C.3     2  ARG2        0.0492
    101 CD         10.4600   -3.4700    7.7130 C.3     2  ARG2        0.2205
    102 NE         10.9340   -3.4170    6.3340 N.pl3   2  ARG2       -0.0865
    103 CZ         11.1960   -2.3090    5.6330 C.cat   2  ARG2        0.5346
    104 NH2        11.0550   -1.1020    6.1900 N.pl3   2  ARG2        0.1354
    105 NH1        11.6260   -2.4130    4.3670 N.pl3   2  ARG2        0.1354
    106 N          13.8450   -8.0790    8.6280 N.am    3  LEU3       -0.1977
    107 CA         15.0450   -8.6070    9.1760 C.3     3  LEU3        0.1596
    108 C          16.2540   -7.7900    8.6420 C.2     3  LEU3        0.2287
    109 O          16.5560   -7.8340    7.4460 O.2     3  LEU3       -0.2864
    110 CB         15.1440  -10.0690    8.7790 C.3     3  LEU3        0.0297
    111 CG         16.3910  -10.8660    9.2250 C.3     3  LEU3        0.0022
    112 CD2        16.4220  -11.0210   10.7590 C.3     3  LEU3        0.0001
    113 CD1        16.5150  -12.2780    8.5340 C.3     3  LEU3        0.0001
    114 N          15.5210  -20.7780   18.0090 N.3     1  GLN1       -0.1231
    115 CA         14.6670  -21.7220   17.2480 C.3     1  GLN1        0.1698
    116 C          13.5610  -21.0120   16.4130 C.2     1  GLN1        0.2592
    117 O          12.3460  -21.3590   16.4730 O.2     1  GLN1       -0.2718
    118 CB         14.0320  -22.7830   18.1890 C.3     1  GLN1        0.0381
    119 CG         14.9810  -23.4720   19.2590 C.3     1  GLN1        0.0905
    120 CD         14.1670  -24.3100   20.2440 C.2     1  GLN1        0.2608
    121 OE1        13.0300  -24.6460   19.9680 O.2     1  GLN1       -0.2717
    122 NE2        14.7110  -24.5750   21.4020 N.am    1  GLN1       -0.0878
    123 N          14.0180  -20.0590   15.6410 N.am    2  MET2       -0.1965
    124 CA         13.2790  -19.3600   14.6260 C.3     2  MET2        0.1736
    125 C          13.7320  -19.9060   13.2300 C.2     2  MET2        0.2616
    126 O          14.6510  -19.4060   12.5750 O.2     2  MET2       -0.2715
    127 CB         13.6100  -17.8970   14.7930 C.3     2  MET2        0.0427
    128 CG         13.1200  -17.3300   16.1750 C.3     2  MET2        0.0599
    129 SD         13.8950  -15.7270   16.3530 S.3     2  MET2       -0.1393
    130 CE         12.9650  -14.6750   15.1970 C.3     2  MET2        0.0692
    131 N          13.0860  -20.9790   12.8210 N.am    3  GLU3       -0.1963
    132 CA         13.4420  -21.7500   11.6570 C.3     3  GLU3        0.1731
    133 C          13.3350  -20.9930   10.3070 C.2     3  GLU3        0.2616
    134 O          14.1500  -21.2190    9.4620 O.2     3  GLU3       -0.2715
    135 CB         12.5420  -22.9820   11.6560 C.3     3  GLU3        0.0370
    136 CG         13.1110  -24.2460   10.9130 C.3     3  GLU3        0.0440
    137 CD         14.6460  -24.2410   10.7710 C.2     3  GLU3        0.0504
    138 OE2        15.3570  -24.2050   11.8110 O.co2   3  GLU3       -0.5492
    139 OE1        15.1290  -24.2580    9.6180 O.co2   3  GLU3       -0.5492
    140 N          12.3350  -20.1250   10.1160 N.am    4  HIS4       -0.1959
    141 CA         12.1520  -19.3890    8.8950 C.3     4  HIS4        0.1787
    142 C          13.3380  -18.4300    8.7000 C.2     4  HIS4        0.2620
    143 O          13.9340  -18.4320    7.6210 O.2     4  HIS4       -0.2715
    144 CB         10.7680  -18.6470    8.8160 C.3     4  HIS4        0.0785
    145 CG          9.5870  -19.5750    8.6350 C.ar    4  HIS4        0.0821
    146 ND1         8.5270  -19.6270    9.5280 N.ar    4  HIS4       -0.2267
    147 CD2         9.3380  -20.5420    7.7030 C.ar    4  HIS4        0.1154
    148 CE1         7.6830  -20.5790    9.1570 C.ar    4  HIS4        0.1986
    149 NE2         8.1570  -21.1600    8.0620 N.ar    4  HIS4       -0.2212
    150 N          13.6820  -17.6420    9.7350 N.am    5  VAL5       -0.1963
    151 CA         14.8670  -16.7960    9.7560 C.3     5  VAL5        0.1727
    152 C          16.1470  -17.5590    9.4400 C.2     5  VAL5        0.2616
    153 O          16.9150  -17.0620    8.6860 O.2     5  VAL5       -0.2715
    154 CB         15.0180  -16.0630   11.1190 C.3     5  VAL5        0.0290
    155 CG1        16.2370  -15.2420   11.1210 C.3     5  VAL5        0.0023
    156 CG2        13.8040  -15.0850   11.3990 C.3     5  VAL5        0.0023
    157 N          16.4110  -18.6980   10.0980 N.am    6  VAL6       -0.1977
    158 CA         17.5070  -19.5940    9.7960 C.3     6  VAL6        0.1596
    159 C          17.6210  -20.0090    8.2590 C.2     6  VAL6        0.2287
    160 O          18.7080  -19.9770    7.6520 O.2     6  VAL6       -0.2864
    161 CB         17.5220  -20.8390   10.7380 C.3     6  VAL6        0.0276
    162 CG1        18.6250  -21.8400   10.2650 C.3     6  VAL6        0.0022
    163 CG2        17.8170  -20.4000   12.1330 C.3     6  VAL6        0.0022
    164 N          16.3700  -18.3630    5.6630 N.3     1  THR1       -0.1218
    165 CA         16.6350  -17.1470    4.9130 C.3     1  THR1        0.1862
    166 C          18.0890  -16.7280    4.9770 C.2     1  THR1        0.2287
    167 O          18.6750  -16.3280    3.9950 O.2     1  THR1       -0.2866
    168 CB         15.7320  -16.0170    5.4740 C.3     1  THR1        0.1770
    169 OG1        14.3980  -16.4190    5.2320 O.3     1  THR1       -0.2211
    170 CG2        16.0100  -14.6220    4.8290 C.3     1  THR1        0.0375
@<TRIPOS>UNITY_ATOM_ATTR
138 1
charge -1
@<TRIPOS>BOND
     1     1     2    1
     2     2     5    1
     3     2     3    1
     4     3     4    2
     5     6     7    1
     6     7    10    1
     7     7     8    1
     8     8     9    2
     9    10    11    1
    10    11    13    1
    11    11    12    1
    12    14    15    1
    13    15    18    1
    14    15    16    1
    15    16    17    2
    16    18    19    1
    17    18    20    1
    18    21    22    1
    19    22    23    1
    20    22    25    1
    21    23    29   am
    22    23    24    2
    23    25    26    2
    24    26    27    1
    25    27    28    1
    26    29    30    1
    27    30    31    1
    28    30    33    1
    29    31    32    2
    30    31    34   am
    31    34    35    1
    32    35    38    1
    33    35    36    1
    34    36    37    2
    35    36    40   am
    36    38    39    1
    37    40    41    1
    38    41    42    1
    39    41    44    1
    40    42    46   am
    41    42    43    2
    42    44    45    1
    43    46    47    1
    44    47    48    1
    45    48    49    2
    46    50    51    1
    47    51    54    1
    48    51    52    1
    49    52    53    2
    50    54    55    1
    51    55    57    1
    52    55    56    1
    53    58    59    1
    54    59    62    1
    55    59    60    1
    56    60    61    2
    57    60    69   am
    58    62    63    1
    59    63    64   ar
    60    63    65   ar
    61    64    66   ar
    62    65    67   ar
    63    66    68   ar
    64    67    68   ar
    65    69    70    1
    66    70    71    1
    67    70    73    1
    68    71    72    2
    69    71    77   am
    70    73    74    1
    71    74    75    1
    72    75    76    1
    73    77    78    1
    74    78    79    1
    75    78    81    1
    76    79    80    2
    77    81    82    1
    78    82    84   ar
    79    82    83   ar
    80    83    85   ar
    81    84    86   ar
    82    85    87   ar
    83    86    87   ar
    84    87    88    1
    85    89    90    1
    86    90    91    1
    87    90    93    1
    88    91    92    2
    89    91    95   am
    90    93    94    1
    91    95    96    1
    92    96    99    1
    93    96    97    1
    94    97   106   am
    95    97    98    2
    96    99   100    1
    97   100   101    1
    98   101   102    1
    99   102   103    2
   100   103   105    1
   101   103   104    1
   102   106   107    1
   103   107   108    1
   104   107   110    1
   105   108   109    2
   106   110   111    1
   107   111   113    1
   108   111   112    1
   109   114   115    1
   110   115   116    1
   111   115   118    1
   112   116   123   am
   113   116   117    2
   114   118   119    1
   115   119   120    1
   116   120   121    2
   117   120   122   am
   118   123   124    1
   119   124   125    1
   120   124   127    1
   121   125   126    2
   122   125   131   am
   123   127   128    1
   124   128   129    1
   125   129   130    1
   126   131   132    1
   127   132   133    1
   128   132   135    1
   129   133   134    2
   130   133   140   am
   131   135   136    1
   132   136   137    1
   133   137   139   ar
   134   137   138   ar
   135   140   141    1
   136   141   142    1
   137   141   144    1
   138   142   143    2
   139   142   150   am
   140   144   145    1
   141   145   147   ar
   142   145   146   ar
   143   146   148   ar
   144   147   149   ar
   145   148   149   ar
   146   150   151    1
   147   151   152    1
   148   151   154    1
   149   152   153    2
   150   152   157   am
   151   154   155    1
   152   154   156    1
   153   157   158    1
   154   158   159    1
   155   158   161    1
   156   159   160    2
   157   161   162    1
   158   161   163    1
   159   164   165    1
   160   165   166    1
   161   165   168    1
   162   166   167    2
   163   168   170    1
   164   168   169    1
