@<TRIPOS>MOLECULE
./1e3v/protein.pdb
 303 296 0 0 0
SMALL
GASTEIGER

@<TRIPOS>ATOM
      1 N           1.7530  -23.8500   86.5920 N.3     1  TYR1       -0.2378
      2 CA          2.3040  -22.5100   86.7820 C.3     1  TYR1        0.1491
      3 C           1.2030  -21.4440   86.6710 C.2     1  TYR1        0.2386
      4 O           1.0880  -20.5690   87.5370 O.2     1  TYR1       -0.2736
      5 CB          3.4170  -22.2390   85.7630 C.3     1  TYR1        0.0527
      6 CG          3.8560  -20.7960   85.7350 C.ar    1  TYR1       -0.0201
      7 CD2         4.8040  -20.3130   86.6450 C.ar    1  TYR1       -0.0011
      8 CD1         3.2930  -19.9000   84.8230 C.ar    1  TYR1       -0.0011
      9 CE2         5.1710  -18.9720   86.6480 C.ar    1  TYR1        0.0363
     10 CE1         3.6480  -18.5650   84.8190 C.ar    1  TYR1        0.0363
     11 CZ          4.5830  -18.1070   85.7300 C.ar    1  TYR1        0.1337
     12 OH          4.9010  -16.7730   85.7380 O.3     1  TYR1       -0.5055
     13 H           2.1550  -24.4410   85.9200 H       1  TYR1        0.1418
     14 HH          4.1630  -16.2690   85.3780 H       1  TYR1        0.2922
     15 N           0.3980  -21.5100   85.6130 N.am    2  ILE2       -0.2982
     16 CA         -0.6880  -20.5480   85.4300 C.3     2  ILE2        0.1368
     17 C          -1.6500  -20.6040   86.6270 C.2     2  ILE2        0.2266
     18 O          -2.1180  -19.5740   87.1110 O.2     2  ILE2       -0.2865
     19 CB         -1.4520  -20.7880   84.1020 C.3     2  ILE2        0.0256
     20 CG1        -0.5710  -20.4020   82.9050 C.3     2  ILE2        0.0021
     21 CG2        -2.7560  -19.9930   84.0830 C.3     2  ILE2        0.0022
     22 CD1        -0.0630  -18.9660   82.9480 C.3     2  ILE2        0.0001
     23 H           0.5400  -22.2120   84.9400 H       2  ILE2        0.1498
     24 N          -0.1290  -18.7330   89.5220 N.3     1  VAL1       -0.2380
     25 CA         -0.1780  -17.2850   89.3140 C.3     1  VAL1        0.1447
     26 C          -1.6070  -16.8380   89.6000 C.2     1  VAL1        0.2383
     27 O          -1.8350  -15.8280   90.2680 O.2     1  VAL1       -0.2736
     28 CB          0.1930  -16.8960   87.8550 C.3     1  VAL1        0.0246
     29 CG1        -0.1560  -15.4530   87.5840 C.3     1  VAL1        0.0019
     30 CG2         1.6640  -17.1040   87.6130 C.3     1  VAL1        0.0019
     31 H           0.0350  -19.3300   88.7610 H       1  VAL1        0.1418
     32 N          -2.5680  -17.6170   89.1180 N.am    2  ASP2       -0.2979
     33 CA         -3.9740  -17.3080   89.3140 C.3     2  ASP2        0.1424
     34 C          -4.3560  -17.1950   90.7930 C.2     2  ASP2        0.2270
     35 O          -5.0680  -16.2590   91.1690 O.2     2  ASP2       -0.2865
     36 CB         -4.8680  -18.3360   88.6160 C.3     2  ASP2        0.0693
     37 CG         -6.3430  -17.9700   88.6870 C.2     2  ASP2        0.0525
     38 OD1        -6.7220  -16.8990   88.1680 O.co2   2  ASP2       -0.5491
     39 OD2        -7.1330  -18.7430   89.2640 O.co2   2  ASP2       -0.5491
     40 H          -2.3240  -18.4100   88.5970 H       2  ASP2        0.1498
     41 N           5.2800  -20.7050   93.4500 N.3     1  ILE1       -0.2391
     42 CA          5.7980  -20.3190   92.1370 C.3     1  ILE1        0.1330
     43 C           7.3260  -20.3180   92.1690 C.2     1  ILE1        0.2241
     44 O           7.9790  -20.9170   91.3060 O.2     1  ILE1       -0.2868
     45 CB          5.3070  -18.9000   91.7130 C.3     1  ILE1        0.0233
     46 CG1         3.7920  -18.9060   91.4780 C.3     1  ILE1        0.0018
     47 CG2         6.0520  -18.4270   90.4500 C.3     1  ILE1        0.0019
     48 CD1         3.2220  -17.5420   91.1290 C.3     1  ILE1        0.0001
     49 H           4.7630  -20.0610   93.9760 H       1  ILE1        0.1418
     50 N          11.1320  -10.8660   81.5220 N.3     1  ASP1       -0.2376
     51 CA          9.7300  -10.4780   81.4620 C.3     1  ASP1        0.1562
     52 C           9.5720   -8.9610   81.6000 C.2     1  ASP1        0.2420
     53 O           9.7510   -8.4110   82.6880 O.2     1  ASP1       -0.2734
     54 CB          8.9800  -11.1850   82.5970 C.3     1  ASP1        0.1357
     55 CG          7.4690  -11.0450   82.5060 C.2     1  ASP1        0.3157
     56 OD1         6.9530  -10.0570   81.9580 O.2     1  ASP1       -0.2502
     57 OD2         6.7790  -11.9400   83.0240 O.3     1  ASP1       -0.4801
     58 H          11.7290  -10.3830   82.1350 H       1  ASP1        0.1418
     59 HD2         7.0530  -12.8010   82.7070 H       1  ASP1        0.2951
     60 N           9.2150   -8.2700   80.5020 N.am    2  PRO2       -0.2729
     61 CA          8.9680   -8.8480   79.1770 C.3     2  PRO2        0.1401
     62 C          10.2760   -9.1250   78.4400 C.2     2  PRO2        0.2269
     63 O          11.3310   -8.5990   78.8130 O.2     2  PRO2       -0.2865
     64 CB          8.1650   -7.7510   78.4760 C.3     2  PRO2        0.0296
     65 CG          8.7370   -6.5060   79.0500 C.3     2  PRO2        0.0237
     66 CD          8.8400   -6.8420   80.5260 C.3     2  PRO2        0.0939
     67 N          10.4490  -10.2990   92.2160 N.3     1  PHE1       -0.2378
     68 CA          9.7020  -10.0350   90.9950 C.3     1  PHE1        0.1491
     69 C           8.2300  -10.4040   91.1630 C.2     1  PHE1        0.2386
     70 O           7.3400   -9.5770   90.9080 O.2     1  PHE1       -0.2736
     71 CB         10.3280  -10.8210   89.8250 C.3     1  PHE1        0.0527
     72 CG          9.4910  -10.8350   88.5670 C.ar    1  PHE1       -0.0203
     73 CD1         9.4520   -9.7270   87.7190 C.ar    1  PHE1       -0.0042
     74 CD2         8.7440  -11.9580   88.2280 C.ar    1  PHE1       -0.0042
     75 CE1         8.6790   -9.7450   86.5550 C.ar    1  PHE1       -0.0003
     76 CE2         7.9720  -11.9860   87.0720 C.ar    1  PHE1       -0.0003
     77 CZ          7.9380  -10.8800   86.2340 C.ar    1  PHE1       -0.0000
     78 H          11.2430  -10.8730   92.1700 H       1  PHE1        0.1418
     79 N           7.9750  -11.6410   91.5860 N.am    2  TYR2       -0.2979
     80 CA          6.6070  -12.1230   91.7770 C.3     2  TYR2        0.1412
     81 C           5.8720  -11.4470   92.9280 C.2     2  TYR2        0.2270
     82 O           4.6660  -11.1920   92.8400 O.2     2  TYR2       -0.2865
     83 CB          6.5900  -13.6440   91.9520 C.3     2  TYR2        0.0540
     84 CG          6.7570  -14.3850   90.6450 C.ar    2  TYR2       -0.0199
     85 CD1         5.6790  -14.5550   89.7820 C.ar    2  TYR2       -0.0011
     86 CD2         7.9950  -14.8910   90.2610 C.ar    2  TYR2       -0.0011
     87 CE1         5.8270  -15.2090   88.5640 C.ar    2  TYR2        0.0363
     88 CE2         8.1530  -15.5460   89.0400 C.ar    2  TYR2        0.0363
     89 CZ          7.0620  -15.6960   88.2020 C.ar    2  TYR2        0.1337
     90 OH          7.2180  -16.3070   86.9840 O.3     2  TYR2       -0.5055
     91 H           8.7310  -12.2430   91.7620 H       2  TYR2        0.1498
     92 HH          6.3820  -16.3650   86.5460 H       2  TYR2        0.2922
     93 N           6.3580   -8.4150   93.9080 N.3     1  GLN1       -0.2380
     94 CA          6.0170   -7.0840   93.4020 C.3     1  GLN1        0.1452
     95 C           4.7720   -7.1410   92.5120 C.2     1  GLN1        0.2384
     96 O           3.7870   -6.4310   92.7390 O.2     1  GLN1       -0.2736
     97 CB          7.1680   -6.5090   92.5720 C.3     1  GLN1        0.0359
     98 CG          8.3080   -5.8920   93.3670 C.3     1  GLN1        0.0867
     99 CD          9.4710   -5.4830   92.4710 C.2     1  GLN1        0.2194
    100 OE1         9.3810   -4.5150   91.7050 O.2     1  GLN1       -0.2753
    101 NE2        10.5620   -6.2380   92.5440 N.am    1  GLN1       -0.3288
    102 H           7.2140   -8.8190   93.6560 H       1  GLN1        0.1418
    103 HE21       10.5460   -6.9960   93.1660 H       1  GLN1        0.1449
    104 HE22       11.3220   -6.0140   91.9770 H       1  GLN1        0.1449
    105 N           4.8280   -7.9930   91.4930 N.am    2  GLY2       -0.2955
    106 CA          3.7220   -8.1170   90.5630 C.3     2  GLY2        0.1757
    107 C           2.4120   -8.6840   91.0730 C.2     2  GLY2        0.2428
    108 O           1.3470   -8.2460   90.6350 O.2     2  GLY2       -0.2732
    109 H           5.6290   -8.5460   91.3650 H       2  GLY2        0.1499
    110 N           2.4670   -9.6550   91.9800 N.am    3  LEU3       -0.2969
    111 CA          1.2490  -10.2780   92.4990 C.3     3  LEU3        0.1486
    112 C           0.8220   -9.8350   93.9010 C.2     3  LEU3        0.2407
    113 O          -0.3490   -9.9460   94.2540 O.2     3  LEU3       -0.2733
    114 CB          1.3880  -11.8070   92.4820 C.3     3  LEU3        0.0290
    115 CG          1.6240  -12.5450   91.1620 C.3     3  LEU3        0.0021
    116 CD2         1.7820  -14.0320   91.4410 C.3     3  LEU3        0.0001
    117 CD1         0.4690  -12.2960   90.2170 C.3     3  LEU3        0.0001
    118 H           3.3360   -9.9770   92.2930 H       3  LEU3        0.1499
    119 N           1.7650   -9.3350   94.6940 N.am    4  GLY4       -0.2953
    120 CA          1.4560   -8.9260   96.0540 C.3     4  GLY4        0.1757
    121 C           0.3770   -7.8730   96.2460 C.2     4  GLY4        0.2429
    122 O          -0.3900   -7.9480   97.2080 O.2     4  GLY4       -0.2732
    123 H           2.6750   -9.2200   94.3570 H       4  GLY4        0.1499
    124 N           0.3270   -6.8890   95.3480 N.am    5  GLY5       -0.2952
    125 CA         -0.6550   -5.8200   95.4550 C.3     5  GLY5        0.1757
    126 C          -2.0930   -6.1990   95.1490 C.2     5  GLY5        0.2429
    127 O          -2.7320   -6.9520   95.8890 O.2     5  GLY5       -0.2732
    128 H           0.9490   -6.9100   94.5980 H       5  GLY5        0.1499
    129 N          -2.6210   -5.6350   94.0690 N.am    6  GLY6       -0.2952
    130 CA         -3.9890   -5.9260   93.6840 C.3     6  GLY6        0.1757
    131 C          -4.1570   -7.3700   93.2460 C.2     6  GLY6        0.2428
    132 O          -3.1700   -8.0580   92.9650 O.2     6  GLY6       -0.2732
    133 H          -2.0580   -5.0730   93.5010 H       6  GLY6        0.1499
    134 N          -5.4040   -7.8290   93.1910 N.am    7  LYS7       -0.2969
    135 CA         -5.7010   -9.1950   92.7850 C.3     7  LYS7        0.1486
    136 C          -5.4940   -9.4070   91.2870 C.2     7  LYS7        0.2406
    137 O          -5.9540   -8.6150   90.4610 O.2     7  LYS7       -0.2733
    138 CB         -7.1230   -9.5900   93.1930 C.3     7  LYS7        0.0292
    139 CG         -7.2280  -10.1830   94.6030 C.3     7  LYS7        0.0083
    140 CD         -6.8750   -9.1700   95.6820 C.3     7  LYS7        0.0608
    141 CE         -6.9050   -9.7980   97.0630 C.3     7  LYS7        0.0993
    142 NZ         -6.6660   -8.7720   98.1160 N.4     7  LYS7        0.2323
    143 H          -6.1430   -7.2310   93.4010 H       7  LYS7        0.1499
    144 HZ1        -5.7430   -8.3230   97.9500 H       7  LYS7        0.2005
    145 HZ2        -7.4140   -8.0500   98.0660 H       7  LYS7        0.2005
    146 HZ3        -6.6740   -9.2220   99.0530 H       7  LYS7        0.2005
    147 N          -4.7780  -10.4760   90.9580 N.am    8  VAL8       -0.2980
    148 CA         -4.4760  -10.8250   89.5810 C.3     8  VAL8        0.1368
    149 C          -5.1150  -12.1680   89.2510 C.2     8  VAL8        0.2266
    150 O          -5.1660  -13.0680   90.0940 O.2     8  VAL8       -0.2865
    151 CB         -2.9400  -10.9360   89.3600 C.3     8  VAL8        0.0256
    152 CG1        -2.6320  -11.3510   87.9380 C.3     8  VAL8        0.0022
    153 CG2        -2.2570   -9.6130   89.6720 C.3     8  VAL8        0.0022
    154 H          -4.4260  -11.0780   91.6440 H       8  VAL8        0.1498
    155 N          -5.2920  -15.1670   86.0870 N.3     1  ALA1       -0.2391
    156 CA         -4.6160  -15.6580   84.8950 C.3     1  ALA1        0.1331
    157 C          -5.2630  -16.9490   84.4360 C.2     1  ALA1        0.2241
    158 O          -5.6020  -17.8110   85.2550 O.2     1  ALA1       -0.2868
    159 CB         -3.1320  -15.8910   85.1780 C.3     1  ALA1        0.0269
    160 H          -5.5720  -15.8130   86.7600 H       1  ALA1        0.1418
    161 N          -1.7530  -17.0190   77.2190 N.3     1  PHE1       -0.2388
    162 CA         -2.6630  -16.7790   78.3330 C.3     1  PHE1        0.1374
    163 C          -3.0070  -15.3150   78.4970 C.2     1  PHE1        0.2244
    164 O          -2.3980  -14.4550   77.8740 O.2     1  PHE1       -0.2868
    165 CB         -2.1120  -17.3440   79.6540 C.3     1  PHE1        0.0514
    166 CG         -0.8090  -16.7320   80.1010 C.ar    1  PHE1       -0.0203
    167 CD1         0.4010  -17.1570   79.5530 C.ar    1  PHE1       -0.0042
    168 CD2        -0.7880  -15.7700   81.1100 C.ar    1  PHE1       -0.0042
    169 CE1         1.6130  -16.6410   80.0000 C.ar    1  PHE1       -0.0003
    170 CE2         0.4270  -15.2420   81.5710 C.ar    1  PHE1       -0.0003
    171 CZ          1.6260  -15.6810   81.0130 C.ar    1  PHE1       -0.0000
    172 H          -1.1270  -16.3070   76.9580 H       1  PHE1        0.1418
    173 N          -3.9280  -12.2190   81.3560 N.3     1  VAL1       -0.2380
    174 CA         -3.7840  -11.7980   82.7360 C.3     1  VAL1        0.1447
    175 C          -4.7180  -10.6190   82.9320 C.2     1  VAL1        0.2383
    176 O          -4.8390   -9.7590   82.0570 O.2     1  VAL1       -0.2736
    177 CB         -2.3330  -11.3500   83.0570 C.3     1  VAL1        0.0246
    178 CG2        -2.2200  -10.9410   84.5180 C.3     1  VAL1        0.0019
    179 CG1        -1.3440  -12.4640   82.7610 C.3     1  VAL1        0.0019
    180 H          -3.7110  -11.5780   80.6510 H       1  VAL1        0.1418
    181 N          -5.4430  -10.6310   84.0390 N.am    2  GLU2       -0.2972
    182 CA         -6.3380   -9.5410   84.3590 C.3     2  GLU2        0.1489
    183 C          -5.8460   -8.9800   85.6750 C.2     2  GLU2        0.2406
    184 O          -5.5560   -9.7270   86.6080 O.2     2  GLU2       -0.2733
    185 CB         -7.7820  -10.0270   84.4770 C.3     2  GLU2        0.0349
    186 CG         -8.3740  -10.4500   83.1490 C.3     2  GLU2        0.0439
    187 CD         -9.7900  -10.9670   83.2640 C.2     2  GLU2        0.0504
    188 OE2       -10.2280  -11.3010   84.3860 O.co2   2  GLU2       -0.5492
    189 OE1       -10.4670  -11.0500   82.2210 O.co2   2  GLU2       -0.5492
    190 H          -5.3640  -11.3680   84.6670 H       2  GLU2        0.1499
    191 N          -5.6720   -7.6720   85.7270 N.am    3  MET3       -0.2970
    192 CA         -5.2010   -7.0650   86.9500 C.3     3  MET3        0.1494
    193 C          -5.9290   -5.7590   87.1960 C.2     3  MET3        0.2407
    194 O          -6.9840   -5.5060   86.6090 O.2     3  MET3       -0.2733
    195 CB         -3.6750   -6.8780   86.9240 C.3     3  MET3        0.0406
    196 CG         -3.1400   -5.9530   85.8510 C.3     3  MET3        0.0598
    197 SD         -2.3110   -6.8040   84.4990 S.3     3  MET3       -0.1393
    198 CE         -3.5980   -6.9020   83.3960 C.3     3  MET3        0.0692
    199 H          -5.9370   -7.1110   84.9700 H       3  MET3        0.1499
    200 N          -5.3880   -4.9530   88.1000 N.am    4  VAL4       -0.2970
    201 CA         -5.9800   -3.6720   88.4470 C.3     4  VAL4        0.1485
    202 C          -4.8600   -2.6390   88.6100 C.2     4  VAL4        0.2406
    203 O          -3.7480   -2.9780   89.0280 O.2     4  VAL4       -0.2733
    204 CB         -6.7990   -3.8050   89.7650 C.3     4  VAL4        0.0269
    205 CG2        -7.2580   -2.4600   90.2560 C.3     4  VAL4        0.0022
    206 CG1        -8.0110   -4.7080   89.5440 C.3     4  VAL4        0.0022
    207 H          -4.5770   -5.2190   88.5880 H       4  VAL4        0.1499
    208 N          -5.1230   -1.4090   88.1750 N.am    5  TRP5       -0.2977
    209 CA         -4.1690   -0.3140   88.3070 C.3     5  TRP5        0.1413
    210 C          -4.9500    0.8070   88.9820 C.2     5  TRP5        0.2270
    211 O          -5.8540    1.3850   88.3850 O.2     5  TRP5       -0.2865
    212 CB         -3.6550    0.1510   86.9400 C.3     5  TRP5        0.0555
    213 CG         -2.4310    1.0490   87.0140 C.ar    5  TRP5       -0.0017
    214 CD1        -1.8080    1.5120   88.1460 C.ar    5  TRP5        0.0681
    215 CD2        -1.6690    1.5510   85.9070 C.ar    5  TRP5        0.0131
    216 NE1        -0.7080    2.2630   87.8070 N.ar    5  TRP5       -0.3523
    217 CE2        -0.5990    2.3050   86.4420 C.ar    5  TRP5        0.0563
    218 CE3        -1.7840    1.4330   84.5140 C.ar    5  TRP5        0.0012
    219 CZ2         0.3520    2.9390   85.6300 C.ar    5  TRP5        0.0170
    220 CZ3        -0.8370    2.0620   83.7080 C.ar    5  TRP5        0.0001
    221 CH2         0.2160    2.8060   84.2710 C.ar    5  TRP5        0.0015
    222 H          -5.9670   -1.2120   87.7270 H       5  TRP5        0.1498
    223 HE1        -0.0790    2.7010   88.4280 H       5  TRP5        0.1660
    224 N          -7.5400   -3.9460   84.1850 N.3     1  CYS1       -0.2373
    225 CA         -6.6780   -3.9840   83.0140 C.3     1  CYS1        0.1565
    226 C          -6.5670   -5.4450   82.5690 C.2     1  CYS1        0.2392
    227 O          -6.8550   -6.3560   83.3480 O.2     1  CYS1       -0.2736
    228 CB         -5.2840   -3.4470   83.3760 C.3     1  CYS1        0.0950
    229 SG         -5.2560   -1.7900   84.1220 S.3     1  CYS1       -0.0801
    230 H          -7.4230   -4.6390   84.8640 H       1  CYS1        0.1419
    231 N          -6.1440   -5.6610   81.3270 N.am    2  ALA2       -0.2972
    232 CA         -5.9740   -7.0020   80.7750 C.3     2  ALA2        0.1486
    233 C          -4.7610   -7.0110   79.8520 C.2     2  ALA2        0.2406
    234 O          -4.4570   -6.0070   79.1920 O.2     2  ALA2       -0.2733
    235 CB         -7.2200   -7.4270   80.0170 C.3     2  ALA2        0.0312
    236 H          -5.9550   -4.8930   80.7470 H       2  ALA2        0.1499
    237 N          -4.0730   -8.1440   79.8040 N.am    3  LEU3       -0.2980
    238 CA         -2.8780   -8.3010   78.9810 C.3     3  LEU3        0.1368
    239 C          -2.8140   -9.7150   78.4030 C.2     3  LEU3        0.2266
    240 O          -3.1440  -10.6850   79.0850 O.2     3  LEU3       -0.2865
    241 CB         -1.6350   -8.0330   79.8380 C.3     3  LEU3        0.0276
    242 CG         -0.2350   -8.2260   79.2550 C.3     3  LEU3        0.0021
    243 CD1         0.0380   -7.2080   78.1660 C.3     3  LEU3        0.0001
    244 CD2         0.8040   -8.1170   80.3600 C.3     3  LEU3        0.0001
    245 H          -4.3720   -8.9110   80.3370 H       3  LEU3        0.1498
    246 N          -0.3990  -12.5550   76.8530 N.3     1  VAL1       -0.2391
    247 CA          1.0060  -12.9330   76.9350 C.3     1  VAL1        0.1330
    248 C           1.2610  -14.3560   76.4330 C.2     1  VAL1        0.2241
    249 O           0.3620  -15.1920   76.3970 O.2     1  VAL1       -0.2868
    250 CB          1.4660  -12.9160   78.4400 C.3     1  VAL1        0.0233
    251 CG1         2.9630  -13.1450   78.5710 C.3     1  VAL1        0.0019
    252 CG2         1.0640  -11.6250   79.1170 C.3     1  VAL1        0.0019
    253 H          -1.0540  -13.2220   77.1440 H       1  VAL1        0.1418
    254 N           4.2760  -17.2090   77.1630 N.3     1  ASP1       -0.2386
    255 CA          5.4830  -17.5410   77.8990 C.3     1  ASP1        0.1442
    256 C           6.1660  -18.7390   77.2430 C.2     1  ASP1        0.2247
    257 O           5.4890  -19.6690   76.7950 O.2     1  ASP1       -0.2868
    258 CB          5.1530  -17.9190   79.3450 C.3     1  ASP1        0.1343
    259 CG          5.0630  -16.7220   80.2700 C.2     1  ASP1        0.3157
    260 OD1         5.1370  -15.5620   79.8140 O.2     1  ASP1       -0.2502
    261 OD2         4.9160  -16.9600   81.4840 O.3     1  ASP1       -0.4801
    262 H           3.4930  -17.8000   77.2080 H       1  ASP1        0.1418
    263 HD2         4.1010  -17.4570   81.6000 H       1  ASP1        0.2951
    264 N          12.7260  -18.5940   81.6030 N.3     1  MET1       -0.2391
    265 CA         11.3750  -18.1890   81.2220 C.3     1  MET1        0.1339
    266 C          11.4700  -16.8650   80.4760 C.2     1  MET1        0.2241
    267 O          12.2320  -15.9670   80.8670 O.2     1  MET1       -0.2868
    268 CB         10.4640  -18.0320   82.4480 C.3     1  MET1        0.0367
    269 CG          8.9980  -17.6780   82.1270 C.3     1  MET1        0.0595
    270 SD          8.6530  -15.9050   81.8650 S.3     1  MET1       -0.1393
    271 CE          8.0100  -15.4260   83.4820 C.3     1  MET1        0.0692
    272 H          13.3580  -17.8950   81.9000 H       1  MET1        0.1418
    273 N           8.8310  -14.0500   78.6490 N.3     1  ALA1       -0.2391
    274 CA          7.4550  -13.6120   78.4320 C.3     1  ALA1        0.1331
    275 C           7.3900  -12.6110   77.2870 C.2     1  ALA1        0.2241
    276 O           8.0750  -11.5900   77.3110 O.2     1  ALA1       -0.2868
    277 CB          6.8930  -12.9870   79.7060 C.3     1  ALA1        0.0269
    278 H           9.4660  -13.4210   79.0510 H       1  ALA1        0.1418
    279 N           5.2990   -9.9200   75.2460 N.3     1  TRP1       -0.2388
    280 CA          4.1860   -8.9730   75.3170 C.3     1  TRP1        0.1375
    281 C           4.7450   -7.5470   75.3100 C.2     1  TRP1        0.2244
    282 O           5.9350   -7.3370   75.5660 O.2     1  TRP1       -0.2868
    283 CB          3.3510   -9.1840   76.5960 C.3     1  TRP1        0.0529
    284 CG          4.0680   -8.8690   77.9010 C.ar    1  TRP1       -0.0020
    285 CD1         4.8160   -9.7300   78.6520 C.ar    1  TRP1        0.0681
    286 CD2         4.0610   -7.6180   78.6140 C.ar    1  TRP1        0.0131
    287 NE1         5.2660   -9.0990   79.7870 N.ar    1  TRP1       -0.3523
    288 CE2         4.8230   -7.8060   79.7900 C.ar    1  TRP1        0.0563
    289 CE3         3.4820   -6.3610   78.3760 C.ar    1  TRP1        0.0012
    290 CZ2         5.0200   -6.7810   80.7270 C.ar    1  TRP1        0.0170
    291 CZ3         3.6780   -5.3400   79.3110 C.ar    1  TRP1        0.0001
    292 CH2         4.4410   -5.5600   80.4690 C.ar    1  TRP1        0.0015
    293 H           6.1920   -9.5220   75.2200 H       1  TRP1        0.1418
    294 HE1         5.7630   -9.5240   80.4990 H       1  TRP1        0.1660
    295 N          -1.7240   -4.7840   75.7590 N.3     1  LEU1       -0.2391
    296 CA         -2.2920   -4.2920   77.0100 C.3     1  LEU1        0.1330
    297 C          -3.5390   -3.4360   76.8620 C.2     1  LEU1        0.2241
    298 O          -3.7260   -2.7560   75.8570 O.2     1  LEU1       -0.2868
    299 CB         -1.2120   -3.4980   77.7480 C.3     1  LEU1        0.0251
    300 CG         -1.4700   -2.8550   79.1170 C.3     1  LEU1        0.0018
    301 CD2        -1.6670   -3.9080   80.1950 C.3     1  LEU1        0.0001
    302 CD1        -0.2770   -1.9760   79.4640 C.3     1  LEU1        0.0001
    303 H          -1.2660   -4.1360   75.1860 H       1  LEU1        0.1418
@<TRIPOS>UNITY_ATOM_ATTR
38 1
charge -1
142 1
charge 1
188 1
charge -1
@<TRIPOS>BOND
     1     1    13    1
     2     1     2    1
     3     2     5    1
     4     2     3    1
     5     3    15   am
     6     3     4    2
     7     5     6    1
     8     6     8   ar
     9     6     7   ar
    10     7     9   ar
    11     8    10   ar
    12     9    11   ar
    13    10    11   ar
    14    11    12    1
    15    12    14    1
    16    15    23    1
    17    15    16    1
    18    16    19    1
    19    16    17    1
    20    17    18    2
    21    19    20    1
    22    19    21    1
    23    20    22    1
    24    24    31    1
    25    24    25    1
    26    25    28    1
    27    25    26    1
    28    26    32   am
    29    26    27    2
    30    28    29    1
    31    28    30    1
    32    32    40    1
    33    32    33    1
    34    33    36    1
    35    33    34    1
    36    34    35    2
    37    36    37    1
    38    37    38   ar
    39    37    39   ar
    40    41    42    1
    41    41    49    1
    42    42    45    1
    43    42    43    1
    44    43    44    2
    45    45    47    1
    46    45    46    1
    47    46    48    1
    48    50    51    1
    49    50    58    1
    50    51    52    1
    51    51    54    1
    52    52    60   am
    53    52    53    2
    54    54    55    1
    55    55    56    2
    56    55    57    1
    57    57    59    1
    58    60    61    1
    59    60    66    1
    60    61    62    1
    61    61    64    1
    62    62    63    2
    63    64    65    1
    64    65    66    1
    65    67    68    1
    66    67    78    1
    67    68    71    1
    68    68    69    1
    69    69    70    2
    70    69    79   am
    71    71    72    1
    72    72    73   ar
    73    72    74   ar
    74    73    75   ar
    75    74    76   ar
    76    75    77   ar
    77    76    77   ar
    78    79    91    1
    79    79    80    1
    80    80    83    1
    81    80    81    1
    82    81    82    2
    83    83    84    1
    84    84    85   ar
    85    84    86   ar
    86    85    87   ar
    87    86    88   ar
    88    87    89   ar
    89    88    89   ar
    90    89    90    1
    91    90    92    1
    92    93    94    1
    93    93   102    1
    94    94    95    1
    95    94    97    1
    96    95   105   am
    97    95    96    2
    98    97    98    1
    99    98    99    1
   100    99   100    2
   101    99   101   am
   102   101   104    1
   103   101   103    1
   104   105   106    1
   105   105   109    1
   106   106   107    1
   107   107   108    2
   108   107   110   am
   109   110   118    1
   110   110   111    1
   111   111   114    1
   112   111   112    1
   113   112   113    2
   114   112   119   am
   115   114   115    1
   116   115   117    1
   117   115   116    1
   118   119   123    1
   119   119   120    1
   120   120   121    1
   121   121   124   am
   122   121   122    2
   123   124   128    1
   124   124   125    1
   125   125   126    1
   126   126   129   am
   127   126   127    2
   128   129   133    1
   129   129   130    1
   130   130   131    1
   131   131   132    2
   132   131   134   am
   133   134   135    1
   134   134   143    1
   135   135   136    1
   136   135   138    1
   137   136   137    2
   138   136   147   am
   139   138   139    1
   140   139   140    1
   141   140   141    1
   142   141   142    1
   143   142   144    1
   144   142   145    1
   145   142   146    1
   146   147   148    1
   147   147   154    1
   148   148   149    1
   149   148   151    1
   150   149   150    2
   151   151   152    1
   152   151   153    1
   153   155   156    1
   154   155   160    1
   155   156   157    1
   156   156   159    1
   157   157   158    2
   158   161   172    1
   159   161   162    1
   160   162   163    1
   161   162   165    1
   162   163   164    2
   163   165   166    1
   164   166   167   ar
   165   166   168   ar
   166   167   169   ar
   167   168   170   ar
   168   169   171   ar
   169   170   171   ar
   170   173   180    1
   171   173   174    1
   172   174   175    1
   173   174   177    1
   174   175   176    2
   175   175   181   am
   176   177   179    1
   177   177   178    1
   178   181   182    1
   179   181   190    1
   180   182   185    1
   181   182   183    1
   182   183   191   am
   183   183   184    2
   184   185   186    1
   185   186   187    1
   186   187   189   ar
   187   187   188   ar
   188   191   199    1
   189   191   192    1
   190   192   195    1
   191   192   193    1
   192   193   194    2
   193   193   200   am
   194   195   196    1
   195   196   197    1
   196   197   198    1
   197   200   201    1
   198   200   207    1
   199   201   202    1
   200   201   204    1
   201   202   208   am
   202   202   203    2
   203   204   206    1
   204   204   205    1
   205   208   222    1
   206   208   209    1
   207   209   212    1
   208   209   210    1
   209   210   211    2
   210   212   213    1
   211   213   215   ar
   212   213   214   ar
   213   214   216   ar
   214   215   218   ar
   215   215   217   ar
   216   216   217   ar
   217   216   223    1
   218   217   219   ar
   219   218   220   ar
   220   219   221   ar
   221   220   221   ar
   222   224   225    1
   223   224   230    1
   224   225   226    1
   225   225   228    1
   226   226   231   am
   227   226   227    2
   228   228   229    1
   229   231   236    1
   230   231   232    1
   231   232   233    1
   232   232   235    1
   233   233   234    2
   234   233   237   am
   235   237   238    1
   236   237   245    1
   237   238   239    1
   238   238   241    1
   239   239   240    2
   240   241   242    1
   241   242   243    1
   242   242   244    1
   243   246   247    1
   244   246   253    1
   245   247   248    1
   246   247   250    1
   247   248   249    2
   248   250   251    1
   249   250   252    1
   250   254   262    1
   251   254   255    1
   252   255   256    1
   253   255   258    1
   254   256   257    2
   255   258   259    1
   256   259   260    2
   257   259   261    1
   258   261   263    1
   259   264   265    1
   260   264   272    1
   261   265   266    1
   262   265   268    1
   263   266   267    2
   264   268   269    1
   265   269   270    1
   266   270   271    1
   267   273   274    1
   268   273   278    1
   269   274   275    1
   270   274   277    1
   271   275   276    2
   272   279   293    1
   273   279   280    1
   274   280   281    1
   275   280   283    1
   276   281   282    2
   277   283   284    1
   278   284   286   ar
   279   284   285   ar
   280   285   287   ar
   281   286   289   ar
   282   286   288   ar
   283   287   288   ar
   284   287   294    1
   285   288   290   ar
   286   289   291   ar
   287   290   292   ar
   288   291   292   ar
   289   295   303    1
   290   295   296    1
   291   296   297    1
   292   296   299    1
   293   297   298    2
   294   299   300    1
   295   300   302    1
   296   300   301    1
