@<TRIPOS>MOLECULE
./2zhz/protein.pdb
 98 93 0 0 0
SMALL
GASTEIGER

@<TRIPOS>ATOM
      1 N           5.7730  -17.3890   24.1790 N.3     1  ILE1       -0.1245
      2 CA          4.9500  -18.3230   24.9430 C.3     1  ILE1        0.1561
      3 C           3.5780  -18.4110   24.2780 C.2     1  ILE1        0.2260
      4 O           3.0020  -19.4930   24.1560 O.2     1  ILE1       -0.2867
      5 CB          4.7560  -17.8490   26.3980 C.3     1  ILE1        0.0252
      6 CG1         6.0690  -17.9820   27.1720 C.3     1  ILE1        0.0019
      7 CG2         3.6440  -18.6510   27.0670 C.3     1  ILE1        0.0019
      8 CD1         6.0870  -17.2190   28.4850 C.3     1  ILE1        0.0001
      9 N           3.5580  -20.4390   20.9720 N.3     1  VAL1       -0.1231
     10 CA          3.7070  -21.8670   21.2470 C.3     1  VAL1        0.1692
     11 C           2.3520  -22.4270   21.6810 C.2     1  VAL1        0.2592
     12 O           1.9620  -23.5230   21.2740 O.2     1  VAL1       -0.2718
     13 CB          4.7650  -22.1140   22.3540 C.3     1  VAL1        0.0266
     14 CG2         4.7440  -23.5840   22.8040 C.3     1  VAL1        0.0020
     15 CG1         6.1430  -21.7600   21.8180 C.3     1  VAL1        0.0020
     16 N           1.6380  -21.6550   22.4950 N.am    2  ASP2       -0.1976
     17 CA          0.3160  -22.0280   22.9970 C.3     2  ASP2        0.1651
     18 C          -0.6610  -22.1020   21.8120 C.2     2  ASP2        0.2291
     19 O          -1.4650  -23.0320   21.7110 O.2     2  ASP2       -0.2864
     20 CB         -0.1540  -20.9710   24.0080 C.3     2  ASP2        0.0714
     21 CG         -1.4200  -21.3710   24.7600 C.2     2  ASP2        0.0525
     22 OD2        -2.0340  -20.4730   25.3810 O.co2   2  ASP2       -0.5491
     23 OD1        -1.8040  -22.5610   24.7490 O.co2   2  ASP2       -0.5491
     24 N           0.0390  -25.2090   19.8960 N.3     1  ASN1       -0.1240
     25 CA         -0.4710  -26.3770   20.6020 C.3     1  ASN1        0.1653
     26 C          -1.9850  -26.4940   20.4310 C.2     1  ASN1        0.2266
     27 O          -2.5260  -27.5980   20.3210 O.2     1  ASN1       -0.2867
     28 CB         -0.0990  -26.3070   22.0870 C.3     1  ASN1        0.1155
     29 CG         -0.0220  -27.6820   22.7300 C.2     1  ASN1        0.2627
     30 OD1         0.0070  -28.6990   22.0360 O.2     1  ASN1       -0.2716
     31 ND2         0.0340  -27.7160   24.0550 N.am    1  ASN1       -0.0877
     32 N           2.0030  -32.4530   21.9860 N.3     1  GLN1       -0.1245
     33 CA          1.3050  -31.4530   22.7930 C.3     1  GLN1        0.1566
     34 C           1.9610  -31.3520   24.1670 C.2     1  GLN1        0.2260
     35 O           2.0600  -30.2670   24.7490 O.2     1  GLN1       -0.2867
     36 CB         -0.1730  -31.8150   22.9680 C.3     1  GLN1        0.0367
     37 CG         -1.0230  -31.6120   21.7230 C.3     1  GLN1        0.0905
     38 CD         -2.4910  -31.4260   22.0540 C.2     1  GLN1        0.2608
     39 OE1        -3.1470  -32.3360   22.5720 O.2     1  GLN1       -0.2717
     40 NE2        -3.0160  -30.2340   21.7650 N.am    1  GLN1       -0.0878
     41 N           5.2040  -29.4770   23.7820 N.3     1  LEU1       -0.1231
     42 CA          4.9280  -28.0550   23.6340 C.3     1  LEU1        0.1693
     43 C           4.5420  -27.4170   24.9570 C.2     1  LEU1        0.2592
     44 O           4.8340  -26.2440   25.2000 O.2     1  LEU1       -0.2718
     45 CB          3.8310  -27.8400   22.5840 C.3     1  LEU1        0.0284
     46 CG          4.2750  -28.1920   21.1610 C.3     1  LEU1        0.0019
     47 CD1         3.1360  -27.9130   20.1830 C.3     1  LEU1        0.0001
     48 CD2         5.5090  -27.3700   20.7830 C.3     1  LEU1        0.0001
     49 N           3.8780  -28.1850   25.8140 N.am    2  PHE2       -0.1962
     50 CA          3.5060  -27.6680   27.1200 C.3     2  PHE2        0.1771
     51 C           4.7930  -27.4110   27.9030 C.2     2  PHE2        0.2620
     52 O           4.9290  -26.3930   28.5800 O.2     2  PHE2       -0.2715
     53 CB          2.6440  -28.6730   27.8780 C.3     2  PHE2        0.0574
     54 CG          2.1920  -28.1760   29.2180 C.ar    2  PHE2       -0.0200
     55 CD1         1.1270  -27.2880   29.3190 C.ar    2  PHE2       -0.0042
     56 CD2         2.8630  -28.5560   30.3760 C.ar    2  PHE2       -0.0042
     57 CE1         0.7360  -26.7810   30.5590 C.ar    2  PHE2       -0.0003
     58 CE2         2.4820  -28.0560   31.6190 C.ar    2  PHE2       -0.0003
     59 CZ          1.4150  -27.1660   31.7090 C.ar    2  PHE2       -0.0000
     60 N           5.7420  -28.3380   27.8040 N.am    3  ASP3       -0.1959
     61 CA          7.0120  -28.1880   28.5070 C.3     3  ASP3        0.1783
     62 C           7.8730  -27.0850   27.9060 C.2     3  ASP3        0.2620
     63 O           8.5690  -26.3690   28.6270 O.2     3  ASP3       -0.2715
     64 CB          7.7930  -29.5030   28.5010 C.3     3  ASP3        0.0728
     65 CG          7.1540  -30.5620   29.3760 C.2     3  ASP3        0.0526
     66 OD2         6.3000  -30.2090   30.2210 O.co2   3  ASP3       -0.5491
     67 OD1         7.5140  -31.7480   29.2320 O.co2   3  ASP3       -0.5491
     68 N           7.8260  -26.9480   26.5840 N.am    4  LEU4       -0.1963
     69 CA          8.6040  -25.9200   25.9090 C.3     4  LEU4        0.1728
     70 C           8.1050  -24.5580   26.3890 C.2     4  LEU4        0.2617
     71 O           8.8970  -23.6610   26.6790 O.2     4  LEU4       -0.2715
     72 CB          8.4510  -26.0540   24.3870 C.3     4  LEU4        0.0311
     73 CG          9.4640  -25.3050   23.5130 C.3     4  LEU4        0.0022
     74 CD1         9.4950  -25.9240   22.1210 C.3     4  LEU4        0.0001
     75 CD2         9.1040  -23.8380   23.4330 C.3     4  LEU4        0.0001
     76 N           6.7850  -24.4200   26.4880 N.am    5  GLY5       -0.1940
     77 CA          6.2040  -23.1720   26.9560 C.3     5  GLY5        0.2014
     78 C           6.5940  -22.9350   28.4040 C.2     5  GLY5        0.2639
     79 O           6.8710  -21.8030   28.8110 O.2     5  GLY5       -0.2714
     80 N           6.6180  -24.0140   29.1820 N.am    6  GLY6       -0.1939
     81 CA          6.9940  -23.9120   30.5810 C.3     6  GLY6        0.2014
     82 C           8.4280  -23.4400   30.7070 C.2     6  GLY6        0.2638
     83 O           8.7670  -22.6860   31.6210 O.2     6  GLY6       -0.2714
     84 N           9.2790  -23.8850   29.7870 N.am    7  GLU7       -0.1977
     85 CA         10.6790  -23.4840   29.8000 C.3     7  GLU7        0.1600
     86 C          10.7920  -21.9960   29.4810 C.2     7  GLU7        0.2287
     87 O          11.6500  -21.2960   30.0240 O.2     7  GLU7       -0.2864
     88 CB         11.4880  -24.2870   28.7760 C.3     7  GLU7        0.0356
     89 CG         12.9680  -23.9300   28.7720 C.3     7  GLU7        0.0439
     90 CD         13.7950  -24.8140   27.8570 C.2     7  GLU7        0.0504
     91 OE2        13.4610  -26.0090   27.7250 O.co2   7  GLU7       -0.5492
     92 OE1        14.7900  -24.3210   27.2850 O.co2   7  GLU7       -0.5492
     93 N           8.5650  -19.8810   30.2210 N.3     1  CYS1       -0.1235
     94 CA          7.9490  -19.2070   31.3700 C.3     1  CYS1        0.1677
     95 C           8.8930  -19.0710   32.5590 C.2     1  CYS1        0.2270
     96 O           8.7640  -18.1470   33.3670 O.2     1  CYS1       -0.2867
     97 CB          6.7060  -19.9670   31.8330 C.3     1  CYS1        0.0956
     98 SG          5.2990  -19.8910   30.7150 S.3     1  CYS1       -0.0801
@<TRIPOS>UNITY_ATOM_ATTR
22 1
charge -1
66 1
charge -1
91 1
charge -1
@<TRIPOS>BOND
     1     1     2    1
     2     2     3    1
     3     2     5    1
     4     3     4    2
     5     5     7    1
     6     5     6    1
     7     6     8    1
     8     9    10    1
     9    10    11    1
    10    10    13    1
    11    11    12    2
    12    11    16   am
    13    13    15    1
    14    13    14    1
    15    16    17    1
    16    17    18    1
    17    17    20    1
    18    18    19    2
    19    20    21    1
    20    21    23   ar
    21    21    22   ar
    22    24    25    1
    23    25    26    1
    24    25    28    1
    25    26    27    2
    26    28    29    1
    27    29    30    2
    28    29    31   am
    29    32    33    1
    30    33    36    1
    31    33    34    1
    32    34    35    2
    33    36    37    1
    34    37    38    1
    35    38    40   am
    36    38    39    2
    37    41    42    1
    38    42    45    1
    39    42    43    1
    40    43    44    2
    41    43    49   am
    42    45    46    1
    43    46    47    1
    44    46    48    1
    45    49    50    1
    46    50    53    1
    47    50    51    1
    48    51    60   am
    49    51    52    2
    50    53    54    1
    51    54    55   ar
    52    54    56   ar
    53    55    57   ar
    54    56    58   ar
    55    57    59   ar
    56    58    59   ar
    57    60    61    1
    58    61    62    1
    59    61    64    1
    60    62    68   am
    61    62    63    2
    62    64    65    1
    63    65    67   ar
    64    65    66   ar
    65    68    69    1
    66    69    72    1
    67    69    70    1
    68    70    76   am
    69    70    71    2
    70    72    73    1
    71    73    74    1
    72    73    75    1
    73    76    77    1
    74    77    78    1
    75    78    79    2
    76    78    80   am
    77    80    81    1
    78    81    82    1
    79    82    84   am
    80    82    83    2
    81    84    85    1
    82    85    88    1
    83    85    86    1
    84    86    87    2
    85    88    89    1
    86    89    90    1
    87    90    92   ar
    88    90    91   ar
    89    93    94    1
    90    94    97    1
    91    94    95    1
    92    95    96    2
    93    97    98    1
