@<TRIPOS>MOLECULE
./1ogk/protein.pdb
 294 282 0 0 0
SMALL
GASTEIGER

@<TRIPOS>ATOM
      1 N          -2.8020    2.3680   53.5640 N.3     1  GLN1       -0.1245
      2 CA         -1.6380    3.0320   53.0090 C.3     1  GLN1        0.1566
      3 C          -1.8700    4.5460   52.8520 C.2     1  GLN1        0.2260
      4 O          -0.9790    5.3330   53.1110 O.2     1  GLN1       -0.2867
      5 CB         -1.2230    2.4170   51.6930 C.3     1  GLN1        0.0367
      6 CG          0.0810    2.9850   51.1520 C.3     1  GLN1        0.0905
      7 CD          1.2260    2.8400   52.1310 C.2     1  GLN1        0.2608
      8 OE1         1.2870    1.8750   52.8590 O.2     1  GLN1       -0.2717
      9 NE2         2.1290    3.7790   52.1390 N.am    1  GLN1       -0.0878
     10 N          -1.5690    6.1510   56.2610 N.3     1  LEU1       -0.1231
     11 CA         -0.1940    6.2610   56.6910 C.3     1  LEU1        0.1693
     12 C           0.4870    7.4370   55.9990 C.2     1  LEU1        0.2592
     13 O           1.0850    8.2890   56.6230 O.2     1  LEU1       -0.2718
     14 CB          0.5660    4.9790   56.4020 C.3     1  LEU1        0.0284
     15 CG          1.7330    4.5750   57.3130 C.3     1  LEU1        0.0019
     16 CD1         2.7800    3.9190   56.4490 C.3     1  LEU1        0.0001
     17 CD2         2.2950    5.6560   58.1800 C.3     1  LEU1        0.0001
     18 N           0.3630    7.5060   54.6990 N.am    2  ASN2       -0.1960
     19 CA          0.9890    8.5960   53.9800 C.3     2  ASN2        0.1819
     20 C           0.4180    9.9370   54.4570 C.2     2  ASN2        0.2621
     21 O           1.1740   10.8760   54.6160 O.2     2  ASN2       -0.2715
     22 CB          0.8150    8.4420   52.4700 C.3     2  ASN2        0.1195
     23 CG          1.4620    7.1830   51.9050 C.2     2  ASN2        0.2630
     24 OD1         2.3440    6.5440   52.5210 O.2     2  ASN2       -0.2716
     25 ND2         1.0060    6.8180   50.6930 N.am    2  ASN2       -0.0877
     26 N          -0.8880   10.0290   54.7280 N.am    3  ILE3       -0.1977
     27 CA         -1.4760   11.2860   55.2380 C.3     3  ILE3        0.1596
     28 C          -0.8780   11.6820   56.6020 C.2     3  ILE3        0.2287
     29 O          -0.7130   12.8630   56.8960 O.2     3  ILE3       -0.2864
     30 CB         -2.9830   11.1550   55.4080 C.3     3  ILE3        0.0276
     31 CG1        -3.6530   11.0630   54.0710 C.3     3  ILE3        0.0022
     32 CG2        -3.5380   12.3610   56.1160 C.3     3  ILE3        0.0022
     33 CD1        -5.1290   10.7210   54.1710 C.3     3  ILE3        0.0001
     34 N           2.1330   11.3250   57.4550 N.3     1  MET1       -0.1230
     35 CA          3.4320   11.8960   57.1630 C.3     1  MET1        0.1702
     36 C           3.2950   13.2880   56.6170 C.2     1  MET1        0.2592
     37 O           3.8580   14.2390   57.1710 O.2     1  MET1       -0.2718
     38 CB          4.1970   10.9660   56.2630 C.3     1  MET1        0.0401
     39 CG          4.0460    9.4980   56.6610 C.3     1  MET1        0.0596
     40 SD          5.4790    8.5290   56.1620 S.3     1  MET1       -0.1393
     41 CE          5.3570    7.1300   57.2710 C.3     1  MET1        0.0692
     42 N           2.5520   13.4530   55.5330 N.am    2  ASP2       -0.1976
     43 CA          2.1340   14.7750   55.0510 C.3     2  ASP2        0.1651
     44 C           0.6990   14.6010   54.5550 C.2     2  ASP2        0.2291
     45 O           0.4400   13.7230   53.7280 O.2     2  ASP2       -0.2864
     46 CB          3.0050   15.2780   53.8860 C.3     2  ASP2        0.0714
     47 CG          4.4390   15.6450   54.3090 C.2     2  ASP2        0.0525
     48 OD2         4.5940   16.5960   55.1120 O.co2   2  ASP2       -0.5491
     49 OD1         5.4900   15.0740   53.8910 O.co2   2  ASP2       -0.5491
     50 N          -0.1280   14.7630   50.8910 N.3     1  TRP1       -0.1241
     51 CA          0.8750   13.9220   50.2030 C.3     1  TRP1        0.1602
     52 C           0.5880   13.6990   48.7180 C.2     1  TRP1        0.2264
     53 O           1.4590   13.8200   47.8990 O.2     1  TRP1       -0.2867
     54 CB          1.0920   12.5640   50.8970 C.3     1  TRP1        0.0510
     55 CG          0.0290   11.5320   50.6670 C.2     1  TRP1       -0.0168
     56 CD1        -1.0520   11.3180   51.4350 C.3     1  TRP1        0.1477
     57 CD2        -0.0360   10.5580   49.6160 C.ar    1  TRP1        0.0113
     58 NE1        -1.8070   10.2870   50.9320 N.2     1  TRP1       -0.2659
     59 CE2        -1.1890    9.7880   49.8240 C.ar    1  TRP1        0.0758
     60 CE3         0.7650   10.2530   48.5230 C.ar    1  TRP1        0.0009
     61 CZ2        -1.5530    8.7430   48.9920 C.ar    1  TRP1        0.0187
     62 CZ3         0.4100    9.2170   47.7180 C.ar    1  TRP1        0.0001
     63 CH2        -0.7410    8.4760   47.9450 C.ar    1  TRP1        0.0015
     64 N           3.8420   14.6560   46.9020 N.3     1  ARG1       -0.1231
     65 CA          4.4570   13.4700   46.2970 C.3     1  ARG1        0.1694
     66 C           4.2970   13.4310   44.7870 C.2     1  ARG1        0.2592
     67 O           3.5270   14.1570   44.1930 O.2     1  ARG1       -0.2718
     68 CB          3.8500   12.1780   46.8810 C.3     1  ARG1        0.0321
     69 CG          4.7440   11.2840   47.7800 C.3     1  ARG1        0.0489
     70 CD          5.4710   11.9670   48.9450 C.3     1  ARG1        0.2205
     71 NE          6.6340   12.6960   48.4670 N.pl3   1  ARG1       -0.0865
     72 CZ          7.3070   13.5780   49.1650 C.cat   1  ARG1        0.5346
     73 NH2         7.0100   13.8370   50.4210 N.pl3   1  ARG1        0.1354
     74 NH1         8.3020   14.2110   48.5990 N.pl3   1  ARG1        0.1354
     75 N           5.0540   12.5490   44.1840 N.am    2  HIS2       -0.1976
     76 CA          5.1550   12.3980   42.7420 C.3     2  HIS2        0.1652
     77 C           5.4340   10.9050   42.4650 C.2     2  HIS2        0.2291
     78 O           6.0430   10.1790   43.2650 O.2     2  HIS2       -0.2864
     79 CB          6.2850   13.2940   42.2390 C.3     2  HIS2        0.0731
     80 CG          6.5350   13.2470   40.7580 C.2     2  HIS2        0.0652
     81 ND1         5.9920   14.1590   39.8740 N.2     2  HIS2       -0.2310
     82 CD2         7.3560   12.4660   40.0230 C.3     2  HIS2        0.1683
     83 CE1         6.4430   13.9150   38.6540 C.2     2  HIS2        0.1939
     84 NE2         7.2730   12.8890   38.7190 N.2     2  HIS2       -0.2440
     85 N           8.9070    9.6280   43.1570 N.3     1  ASP1       -0.1227
     86 CA          9.2750    9.3850   44.5480 C.3     1  ASP1        0.1748
     87 C           9.0520    7.9140   44.9250 C.2     1  ASP1        0.2595
     88 O           9.9150    7.2900   45.5490 O.2     1  ASP1       -0.2718
     89 CB          8.4890   10.2900   45.4770 C.3     1  ASP1        0.0701
     90 CG          8.9270   11.6990   45.3790 C.2     1  ASP1        0.0523
     91 OD1        10.1000   11.8860   45.0250 O.co2   1  ASP1       -0.5491
     92 OD2         8.1970   12.6840   45.6130 O.co2   1  ASP1       -0.5491
     93 N           7.9340    7.3470   44.5210 N.am    2  TRP2       -0.1976
     94 CA          7.6630    5.9620   44.8260 C.3     2  TRP2        0.1637
     95 C           8.4810    5.0040   44.0090 C.2     2  TRP2        0.2290
     96 O           8.7400    3.8830   44.4210 O.2     2  TRP2       -0.2864
     97 CB          6.2200    5.6590   44.5720 C.3     2  TRP2        0.0539
     98 CG          5.3290    6.6140   45.2270 C.2     2  TRP2       -0.0137
     99 CD1         4.5140    7.5030   44.6270 C.2     2  TRP2        0.0907
    100 CD2         5.1800    6.8040   46.6110 C.3     2  TRP2        0.0819
    101 NE1         3.8400    8.2290   45.5730 N.2     2  TRP2       -0.2482
    102 CE2         4.2480    7.8080   46.8040 C.2     2  TRP2        0.0665
    103 CE3         5.7360    6.2180   47.7150 C.2     2  TRP2       -0.0164
    104 CZ2         3.8840    8.2330   48.0340 C.2     2  TRP2        0.0153
    105 CZ3         5.3590    6.6460   48.9290 C.2     2  TRP2       -0.0038
    106 CH2         4.4620    7.6380   49.0850 C.2     2  TRP2        0.0009
    107 N          11.6640    5.5790   43.1240 N.3     1  LEU1       -0.1231
    108 CA         12.9000    5.6380   43.8780 C.3     1  LEU1        0.1693
    109 C          12.8360    4.7810   45.1170 C.2     1  LEU1        0.2592
    110 O          13.7520    3.9600   45.3460 O.2     1  LEU1       -0.2718
    111 CB         13.1870    7.0770   44.3220 C.3     1  LEU1        0.0284
    112 CG         14.3860    7.2840   45.2390 C.3     1  LEU1        0.0019
    113 CD1        15.7120    6.8310   44.5400 C.3     1  LEU1        0.0001
    114 CD2        14.4830    8.6970   45.6700 C.3     1  LEU1        0.0001
    115 N          11.7900    5.0180   45.9310 N.am    2  ALA2       -0.1966
    116 CA         11.6280    4.3450   47.2130 C.3     2  ALA2        0.1728
    117 C          11.7290    2.8660   46.9910 C.2     2  ALA2        0.2616
    118 O          12.3920    2.2060   47.7400 O.2     2  ALA2       -0.2715
    119 CB         10.3140    4.6680   47.8320 C.3     2  ALA2        0.0334
    120 N          11.0740    2.3490   45.9510 N.am    3  ILE3       -0.1977
    121 CA         11.0600    0.9290   45.7080 C.3     3  ILE3        0.1596
    122 C          12.4300    0.4860   45.2560 C.2     3  ILE3        0.2287
    123 O          12.8560   -0.6000   45.5810 O.2     3  ILE3       -0.2864
    124 CB         10.0010    0.5240   44.6600 C.3     3  ILE3        0.0276
    125 CG1         8.6080    0.8190   45.1750 C.3     3  ILE3        0.0022
    126 CG2        10.1190   -1.0300   44.3290 C.3     3  ILE3        0.0022
    127 CD1         7.4900    0.2150   44.3120 C.3     3  ILE3        0.0001
    128 N          15.3280    1.6200   46.2080 N.3     1  MET1       -0.1230
    129 CA         16.2310    1.5030   47.3370 C.3     1  MET1        0.1702
    130 C          15.9140    0.3190   48.2650 C.2     1  MET1        0.2592
    131 O          16.8230   -0.4360   48.6100 O.2     1  MET1       -0.2718
    132 CB         16.2580    2.8480   48.0680 C.3     1  MET1        0.0401
    133 CG         16.5450    4.0430   47.1560 C.3     1  MET1        0.0596
    134 SD         18.2730    4.1230   46.6450 S.3     1  MET1       -0.1393
    135 CE         19.0640    4.4050   48.2270 C.3     1  MET1        0.0692
    136 N          14.6120    0.1610   48.6700 N.am    2  GLU2       -0.1979
    137 CA         14.2300   -0.9760   49.5570 C.3     2  GLU2        0.1600
    138 C          14.4040   -2.2960   48.7680 C.2     2  GLU2        0.2287
    139 O          14.3420   -3.3750   49.3590 O.2     2  GLU2       -0.2864
    140 CB         12.7890   -0.8470   50.1630 C.3     2  GLU2        0.0356
    141 CG         12.4730    0.2510   51.2310 C.3     2  GLU2        0.0439
    142 CD         13.2480    0.2470   52.5800 C.2     2  GLU2        0.0504
    143 OE2        12.8720   -0.4900   53.5100 O.co2   2  GLU2       -0.5492
    144 OE1        14.2380    1.0150   52.6940 O.co2   2  GLU2       -0.5492
    145 N          18.1660   -2.8290   49.3810 N.3     1  GLU1       -0.1245
    146 CA         18.3860   -3.1900   50.7770 C.3     1  GLU1        0.1565
    147 C          17.9790   -4.6740   50.9720 C.2     1  GLU1        0.2260
    148 O          18.6400   -5.3860   51.7200 O.2     1  GLU1       -0.2867
    149 CB         17.7300   -2.0760   51.6510 C.3     1  GLU1        0.0329
    150 CG         17.3420   -2.2350   53.1340 C.3     1  GLU1        0.0437
    151 CD         16.8120   -0.8680   53.7080 C.2     1  GLU1        0.0504
    152 OE1        15.6190   -0.5300   53.8960 O.co2   1  GLU1       -0.5492
    153 OE2        17.6350   -0.0270   53.9810 O.co2   1  GLU1       -0.5492
    154 N          11.4780   -6.4150   54.5050 N.3     1  GLU1       -0.1245
    155 CA         11.7570   -5.5600   53.4030 C.3     1  GLU1        0.1565
    156 C          10.6900   -5.8500   52.3050 C.2     1  GLU1        0.2260
    157 O          10.3620   -4.9800   51.5440 O.2     1  GLU1       -0.2867
    158 CB         13.2670   -5.5980   52.9780 C.3     1  GLU1        0.0329
    159 CG         14.3420   -5.3960   54.1210 C.3     1  GLU1        0.0437
    160 CD         14.4270   -3.9510   54.8240 C.2     1  GLU1        0.0504
    161 OE1        13.8260   -3.0090   54.3530 O.co2   1  GLU1       -0.5492
    162 OE2        15.1010   -3.6520   55.8420 O.co2   1  GLU1       -0.5492
    163 N           7.8050   -3.6800   53.1540 N.3     1  ASP1       -0.1241
    164 CA          8.2090   -2.2750   52.9190 C.3     1  ASP1        0.1616
    165 C           8.0570   -1.8840   51.4290 C.2     1  ASP1        0.2264
    166 O           7.6700   -0.7730   51.0710 O.2     1  ASP1       -0.2867
    167 CB          9.6840   -2.0310   53.3040 C.3     1  ASP1        0.0687
    168 CG          9.9460   -1.9460   54.8430 C.2     1  ASP1        0.0522
    169 OD2         9.0710   -1.4470   55.5960 O.co2   1  ASP1       -0.5491
    170 OD1        11.0420   -2.3320   55.3680 O.co2   1  ASP1       -0.5491
    171 N           4.2850   -1.4080   50.8720 N.3     1  HIS1       -0.1227
    172 CA          3.9110   -0.0850   51.2970 C.3     1  HIS1        0.1749
    173 C           4.1170    0.9170   50.1530 C.2     1  HIS1        0.2595
    174 O           3.2490    1.7690   49.8750 O.2     1  HIS1       -0.2718
    175 CB          4.7780    0.3460   52.4710 C.3     1  HIS1        0.0718
    176 CG          4.2690   -0.0570   53.8240 C.2     1  HIS1        0.0650
    177 ND1         4.4610   -1.3140   54.3590 N.2     1  HIS1       -0.2310
    178 CD2         3.6580    0.6630   54.7870 C.3     1  HIS1        0.1683
    179 CE1         3.9450   -1.3660   55.5710 C.2     1  HIS1        0.1939
    180 NE2         3.4530   -0.1790   55.8560 N.2     1  HIS1       -0.2440
    181 N           5.2730    0.8330   49.5030 N.am    2  PHE2       -0.1976
    182 CA          5.5930    1.7440   48.3960 C.3     2  PHE2        0.1639
    183 C           4.7880    1.5550   47.0800 C.2     2  PHE2        0.2290
    184 O           4.5210    2.5300   46.3820 O.2     2  PHE2       -0.2864
    185 CB          7.1050    1.7330   48.1260 C.3     2  PHE2        0.0560
    186 CG          7.9060    2.3880   49.2240 C.ar    2  PHE2       -0.0200
    187 CD1         7.6090    3.6930   49.6330 C.ar    2  PHE2       -0.0042
    188 CD2         8.9220    1.7110   49.8680 C.ar    2  PHE2       -0.0042
    189 CE1         8.2820    4.2640   50.6370 C.ar    2  PHE2       -0.0003
    190 CE2         9.6030    2.3020   50.8760 C.ar    2  PHE2       -0.0003
    191 CZ          9.2850    3.5640   51.2590 C.ar    2  PHE2       -0.0000
    192 N           1.2730    2.7070   47.5800 N.3     1  SER1       -0.1202
    193 CA          1.4130    4.1460   47.4650 C.3     1  SER1        0.2020
    194 C           1.4650    4.5820   46.0230 C.2     1  SER1        0.2619
    195 O           0.8070    5.5150   45.6200 O.2     1  SER1       -0.2717
    196 CB          2.6900    4.6070   48.1560 C.3     1  SER1        0.2103
    197 OG          2.3950    5.1400   49.4070 O.3     1  SER1       -0.2182
    198 N           2.2990    3.8980   45.2610 N.am    2  GLY2       -0.1956
    199 CA          2.4900    4.1660   43.8530 C.3     2  GLY2        0.1869
    200 C           1.1950    4.0770   43.0870 C.2     2  GLY2        0.2309
    201 O           0.8730    5.0040   42.3710 O.2     2  GLY2       -0.2863
    202 N          -1.2400    6.9430   43.5440 N.3     1  GLN1       -0.1245
    203 CA         -0.8080    8.2540   43.1190 C.3     1  GLN1        0.1566
    204 C          -1.0630    8.3420   41.6620 C.2     1  GLN1        0.2260
    205 O          -1.5320    9.3620   41.1620 O.2     1  GLN1       -0.2867
    206 CB          0.6740    8.4190   43.4140 C.3     1  GLN1        0.0367
    207 CG          1.3100    9.6620   42.8460 C.3     1  GLN1        0.0905
    208 CD          1.5280   10.7640   43.8430 C.2     1  GLN1        0.2608
    209 OE1         1.4790   10.5670   45.0330 O.2     1  GLN1       -0.2717
    210 NE2         1.7950   11.9490   43.3330 N.am    1  GLN1       -0.0878
    211 N           4.1680   -3.5120   60.3060 N.3     1  LYS1       -0.1245
    212 CA          5.0770   -2.4550   59.8850 C.3     1  LYS1        0.1561
    213 C           4.3160   -1.1180   59.6800 C.2     1  LYS1        0.2260
    214 O           4.8290   -0.0370   59.8770 O.2     1  LYS1       -0.2867
    215 CB          5.7990   -2.9190   58.6020 C.3     1  LYS1        0.0271
    216 CG          6.8420   -2.0170   58.0670 C.3     1  LYS1        0.0035
    217 CD          7.9690   -1.8240   59.0550 C.3     1  LYS1        0.0206
    218 CE          8.9720   -0.7790   58.6080 C.3     1  LYS1        0.1093
    219 NZ         10.1480   -1.4650   58.0540 N.3     1  LYS1       -0.1314
    220 N           5.6360    2.1230   61.3970 N.3     1  ASN1       -0.1225
    221 CA          5.8180    3.3540   60.6530 C.3     1  ASN1        0.1785
    222 C           5.1930    4.6250   61.3090 C.2     1  ASN1        0.2597
    223 O           5.7490    5.7350   61.2450 O.2     1  ASN1       -0.2718
    224 CB          5.3310    3.1760   59.2170 C.3     1  ASN1        0.1169
    225 CG          6.2960    2.3790   58.3660 C.2     1  ASN1        0.2627
    226 OD1         5.8640    1.6170   57.4900 O.2     1  ASN1       -0.2716
    227 ND2         7.6070    2.5580   58.5980 N.am    1  ASN1       -0.0877
    228 N           4.0440    4.4290   61.9340 N.am    2  GLN2       -0.1979
    229 CA          3.4040    5.4620   62.7590 C.3     2  GLN2        0.1601
    230 C           4.1860    5.7460   64.0340 C.2     2  GLN2        0.2287
    231 O           4.4890    6.8600   64.3620 O.2     2  GLN2       -0.2864
    232 CB          2.0410    4.9520   63.1600 C.3     2  GLN2        0.0394
    233 CG          0.9130    5.5700   62.4190 C.3     2  GLN2        0.0908
    234 CD         -0.1570    4.5660   62.0530 C.2     2  GLN2        0.2608
    235 OE1        -1.3180    4.8490   62.2390 O.2     2  GLN2       -0.2717
    236 NE2         0.2260    3.4070   61.5400 N.am    2  GLN2       -0.0878
    237 N           7.1780    5.3790   64.7600 N.3     1  ARG1       -0.1231
    238 CA          8.3920    6.0740   64.3930 C.3     1  ARG1        0.1694
    239 C           8.2030    7.5690   64.2430 C.2     1  ARG1        0.2591
    240 O           8.9620    8.3190   64.7970 O.2     1  ARG1       -0.2718
    241 CB          8.8990    5.5420   63.0580 C.3     1  ARG1        0.0321
    242 CG          9.8530    4.4090   63.1700 C.3     1  ARG1        0.0489
    243 CD         10.0120    3.6660   61.8770 C.3     1  ARG1        0.2205
    244 NE         10.9180    2.5330   62.0020 N.pl3   1  ARG1       -0.0865
    245 CZ         11.3890    1.8560   60.9830 C.cat   1  ARG1        0.5346
    246 NH1        10.9950    2.1610   59.7610 N.pl3   1  ARG1        0.1354
    247 NH2        12.2220    0.8450   61.1820 N.pl3   1  ARG1        0.1354
    248 N           7.2050    7.9940   63.4720 N.am    2  GLN2       -0.1979
    249 CA          6.8930    9.4110   63.3160 C.3     2  GLN2        0.1601
    250 C           6.5980   10.0710   64.6570 C.2     2  GLN2        0.2287
    251 O           6.9970   11.2080   64.8850 O.2     2  GLN2       -0.2864
    252 CB          5.7280    9.6360   62.3620 C.3     2  GLN2        0.0394
    253 CG          5.9930    9.2800   60.8740 C.3     2  GLN2        0.0908
    254 CD          7.2800    9.8580   60.2580 C.2     2  GLN2        0.2608
    255 OE1         7.4370   11.0780   60.2160 O.2     2  GLN2       -0.2717
    256 NE2         8.1950    8.9730   59.7690 N.am    2  GLN2       -0.0878
    257 N          11.2170   10.4610   64.3030 N.3     1  TYR1       -0.1227
    258 CA         11.8560    9.7860   63.1860 C.3     1  TYR1        0.1736
    259 C          12.1100   10.7920   62.1330 C.2     1  TYR1        0.2595
    260 O          13.1850   10.8730   61.6350 O.2     1  TYR1       -0.2718
    261 CB         10.9630    8.7050   62.5980 C.3     1  TYR1        0.0548
    262 CG         11.6980    7.6740   61.7950 C.ar    1  TYR1       -0.0200
    263 CD1        11.5260    7.5610   60.4280 C.ar    1  TYR1       -0.0009
    264 CD2        12.5440    6.7900   62.4100 C.ar    1  TYR1       -0.0009
    265 CE1        12.1760    6.5790   59.7100 C.ar    1  TYR1        0.0417
    266 CE2        13.2010    5.8560   61.6960 C.ar    1  TYR1        0.0417
    267 CZ         13.0090    5.7520   60.3630 C.ar    1  TYR1        0.1957
    268 OH         13.6960    4.8130   59.7200 O.3     1  TYR1       -0.2866
    269 N          11.1080   11.5870   61.8050 N.am    2  LYS2       -0.1980
    270 CA         11.3060   12.6410   60.8280 C.3     2  LYS2        0.1596
    271 C          12.3900   13.5850   61.3070 C.2     2  LYS2        0.2287
    272 O          12.9920   14.2650   60.4690 O.2     2  LYS2       -0.2864
    273 CB         10.0120   13.3950   60.5290 C.3     2  LYS2        0.0298
    274 CG         10.1630   14.4220   59.4770 C.3     2  LYS2        0.0038
    275 CD          8.8370   15.0840   58.9980 C.3     2  LYS2        0.0206
    276 CE          7.6810   14.0740   58.7810 C.3     2  LYS2        0.1093
    277 NZ          6.6600   14.3970   57.7180 N.3     2  LYS2       -0.1314
    278 N          16.2470    3.2270   67.6760 N.3     1  LYS1       -0.1245
    279 CA         15.9070    2.2200   66.7300 C.3     1  LYS1        0.1561
    280 C          16.4350    0.8970   67.1730 C.2     1  LYS1        0.2260
    281 O          15.7160   -0.0510   67.1450 O.2     1  LYS1       -0.2867
    282 CB         16.5160    2.5620   65.3990 C.3     1  LYS1        0.0271
    283 CG         16.1960    1.5530   64.2990 C.3     1  LYS1        0.0035
    284 CD         15.9500    2.3360   63.0420 C.3     1  LYS1        0.0206
    285 CE         15.8590    1.4970   61.8090 C.3     1  LYS1        0.1093
    286 NZ         15.6260    2.4660   60.6460 N.3     1  LYS1       -0.1314
    287 N          12.2920   -3.4410   63.7040 N.3     1  ASN1       -0.1240
    288 CA         11.5240   -4.3860   62.9280 C.3     1  ASN1        0.1653
    289 C          11.5300   -5.7260   63.5330 C.2     1  ASN1        0.2266
    290 O          10.5700   -6.4190   63.3900 O.2     1  ASN1       -0.2867
    291 CB         12.1000   -4.5660   61.5110 C.3     1  ASN1        0.1155
    292 CG         12.1480   -3.3200   60.7410 C.2     1  ASN1        0.2627
    293 OD1        11.1380   -2.7890   60.3180 O.2     1  ASN1       -0.2716
    294 ND2        13.3310   -2.8140   60.5700 N.am    1  ASN1       -0.0877
@<TRIPOS>UNITY_ATOM_ATTR
48 1
charge -1
91 1
charge -1
143 1
charge -1
152 1
charge -1
161 1
charge -1
169 1
charge -1
@<TRIPOS>BOND
     1     1     2    1
     2     2     5    1
     3     2     3    1
     4     3     4    2
     5     5     6    1
     6     6     7    1
     7     7     9   am
     8     7     8    2
     9    10    11    1
    10    11    12    1
    11    11    14    1
    12    12    18   am
    13    12    13    2
    14    14    15    1
    15    15    16    1
    16    15    17    1
    17    18    19    1
    18    19    22    1
    19    19    20    1
    20    20    21    2
    21    20    26   am
    22    22    23    1
    23    23    25   am
    24    23    24    2
    25    26    27    1
    26    27    30    1
    27    27    28    1
    28    28    29    2
    29    30    31    1
    30    30    32    1
    31    31    33    1
    32    34    35    1
    33    35    38    1
    34    35    36    1
    35    36    42   am
    36    36    37    2
    37    38    39    1
    38    39    40    1
    39    40    41    1
    40    42    43    1
    41    43    46    1
    42    43    44    1
    43    44    45    2
    44    46    47    1
    45    47    49   ar
    46    47    48   ar
    47    50    51    1
    48    51    52    1
    49    51    54    1
    50    52    53    2
    51    54    55    1
    52    55    57    2
    53    55    56    1
    54    56    58    1
    55    57    60   ar
    56    57    59   ar
    57    58    59    2
    58    59    61   ar
    59    60    62   ar
    60    61    63   ar
    61    62    63   ar
    62    64    65    1
    63    65    66    1
    64    65    68    1
    65    66    75   am
    66    66    67    2
    67    68    69    1
    68    69    70    1
    69    70    71    1
    70    71    72    2
    71    72    74    1
    72    72    73    1
    73    75    76    1
    74    76    79    1
    75    76    77    1
    76    77    78    2
    77    79    80    1
    78    80    81    2
    79    80    82    1
    80    81    83    1
    81    82    84    1
    82    83    84    2
    83    85    86    1
    84    86    87    1
    85    86    89    1
    86    87    93   am
    87    87    88    2
    88    89    90    1
    89    90    91   ar
    90    90    92   ar
    91    93    94    1
    92    94    95    1
    93    94    97    1
    94    95    96    2
    95    97    98    1
    96    98    99    2
    97    98   100    1
    98    99   101    1
    99   100   102    1
   100   100   103    1
   101   101   102    2
   102   102   104    1
   103   103   105    2
   104   104   106    2
   105   105   106    1
   106   107   108    1
   107   108   111    1
   108   108   109    1
   109   109   110    2
   110   109   115   am
   111   111   112    1
   112   112   113    1
   113   112   114    1
   114   115   116    1
   115   116   117    1
   116   116   119    1
   117   117   120   am
   118   117   118    2
   119   120   121    1
   120   121   124    1
   121   121   122    1
   122   122   123    2
   123   124   126    1
   124   124   125    1
   125   125   127    1
   126   128   129    1
   127   129   132    1
   128   129   130    1
   129   130   131    2
   130   130   136   am
   131   132   133    1
   132   133   134    1
   133   134   135    1
   134   136   137    1
   135   137   138    1
   136   137   140    1
   137   138   139    2
   138   140   141    1
   139   141   142    1
   140   142   144   ar
   141   142   143   ar
   142   145   146    1
   143   146   147    1
   144   146   149    1
   145   147   148    2
   146   149   150    1
   147   150   151    1
   148   151   152   ar
   149   151   153   ar
   150   154   155    1
   151   155   156    1
   152   155   158    1
   153   156   157    2
   154   158   159    1
   155   159   160    1
   156   160   161   ar
   157   160   162   ar
   158   163   164    1
   159   164   165    1
   160   164   167    1
   161   165   166    2
   162   167   168    1
   163   168   170   ar
   164   168   169   ar
   165   171   172    1
   166   172   173    1
   167   172   175    1
   168   173   181   am
   169   173   174    2
   170   175   176    1
   171   176   177    2
   172   176   178    1
   173   177   179    1
   174   178   180    1
   175   179   180    2
   176   181   182    1
   177   182   183    1
   178   182   185    1
   179   183   184    2
   180   185   186    1
   181   186   187   ar
   182   186   188   ar
   183   187   189   ar
   184   188   190   ar
   185   189   191   ar
   186   190   191   ar
   187   192   193    1
   188   193   194    1
   189   193   196    1
   190   194   198   am
   191   194   195    2
   192   196   197    1
   193   198   199    1
   194   199   200    1
   195   200   201    2
   196   202   203    1
   197   203   204    1
   198   203   206    1
   199   204   205    2
   200   206   207    1
   201   207   208    1
   202   208   210   am
   203   208   209    2
   204   211   212    1
   205   212   215    1
   206   212   213    1
   207   213   214    2
   208   215   216    1
   209   216   217    1
   210   217   218    1
   211   218   219    1
   212   220   221    1
   213   221   224    1
   214   221   222    1
   215   222   223    2
   216   222   228   am
   217   224   225    1
   218   225   226    2
   219   225   227   am
   220   228   229    1
   221   229   232    1
   222   229   230    1
   223   230   231    2
   224   232   233    1
   225   233   234    1
   226   234   236   am
   227   234   235    2
   228   237   238    1
   229   238   241    1
   230   238   239    1
   231   239   248   am
   232   239   240    2
   233   241   242    1
   234   242   243    1
   235   243   244    1
   236   244   245    2
   237   245   246    1
   238   245   247    1
   239   248   249    1
   240   249   252    1
   241   249   250    1
   242   250   251    2
   243   252   253    1
   244   253   254    1
   245   254   256   am
   246   254   255    2
   247   257   258    1
   248   258   259    1
   249   258   261    1
   250   259   260    2
   251   259   269   am
   252   261   262    1
   253   262   263   ar
   254   262   264   ar
   255   263   265   ar
   256   264   266   ar
   257   265   267   ar
   258   266   267   ar
   259   267   268    1
   260   269   270    1
   261   270   273    1
   262   270   271    1
   263   271   272    2
   264   273   274    1
   265   274   275    1
   266   275   276    1
   267   276   277    1
   268   278   279    1
   269   279   282    1
   270   279   280    1
   271   280   281    2
   272   282   283    1
   273   283   284    1
   274   284   285    1
   275   285   286    1
   276   287   288    1
   277   288   291    1
   278   288   289    1
   279   289   290    2
   280   291   292    1
   281   292   293    2
   282   292   294   am
