@<TRIPOS>MOLECULE
./1ohr/protein.pdb
 172 168 0 0 0
SMALL
GASTEIGER

@<TRIPOS>ATOM
      1 N          -3.0370   -2.2420   22.2740 N.3     1  LEU1       -0.2391
      2 CA         -1.6910   -1.7940   22.6340 C.3     1  LEU1        0.1330
      3 C          -1.5040   -0.3000   22.4140 C.2     1  LEU1        0.2241
      4 O          -1.8240    0.1860   21.3190 O.2     1  LEU1       -0.2868
      5 CB         -0.7550   -2.6570   21.7520 C.3     1  LEU1        0.0251
      6 CG          0.7640   -2.4430   21.8430 C.3     1  LEU1        0.0018
      7 CD2         1.2540   -3.0150   23.1750 C.3     1  LEU1        0.0001
      8 CD1         1.4770   -3.1210   20.6430 C.3     1  LEU1        0.0001
      9 H          -3.1870   -2.5110   21.3490 H       1  LEU1        0.1418
     10 N           0.5580    2.4200   21.2060 N.3     1  ASP1       -0.2388
     11 CA          1.7680    2.3420   20.4190 C.3     1  ASP1        0.1386
     12 C           2.2440    3.6680   19.8640 C.2     1  ASP1        0.2245
     13 O           1.7290    4.1260   18.8520 O.2     1  ASP1       -0.2868
     14 CB          1.3500    1.2860   19.3920 C.3     1  ASP1        0.0667
     15 CG          2.4450    0.9660   18.3810 C.2     1  ASP1        0.0522
     16 OD2         3.5320    1.5210   18.4380 O.co2   1  ASP1       -0.5491
     17 OD1         2.1910    0.1180   17.5410 O.co2   1  ASP1       -0.5491
     18 H          -0.2420    2.8610   20.8410 H       1  ASP1        0.1418
     19 N           4.8260    4.3390   18.2230 N.3     1  GLY1       -0.2365
     20 CA          5.4980    4.0920   16.9290 C.3     1  GLY1        0.1694
     21 C           4.4580    3.9440   15.7970 C.2     1  GLY1        0.2402
     22 O           4.8110    3.8490   14.6090 O.2     1  GLY1       -0.2735
     23 H           4.6290    3.5750   18.7900 H       1  GLY1        0.1419
     24 N           3.1770    3.8030   16.0940 N.am    2  ALA2       -0.2972
     25 CA          2.1880    3.6970   15.0260 C.3     2  ALA2        0.1486
     26 C           1.5620    5.0720   14.8060 C.2     2  ALA2        0.2406
     27 O           1.1560    5.7890   15.7370 O.2     2  ALA2       -0.2733
     28 CB          1.0250    2.7580   15.3630 C.3     2  ALA2        0.0312
     29 H           2.8480    3.8870   17.0140 H       2  ALA2        0.1499
     30 N           1.4970    5.4810   13.5340 N.am    3  ASP3       -0.2967
     31 CA          0.8570    6.7720   13.1860 C.3     3  ASP3        0.1542
     32 C          -0.6560    6.6100   13.2390 C.2     3  ASP3        0.2410
     33 O          -1.3760    7.5460   13.5880 O.2     3  ASP3       -0.2733
     34 CB          1.1540    7.2660   11.7540 C.3     3  ASP3        0.0706
     35 CG          2.6320    7.4340   11.4430 C.2     3  ASP3        0.0525
     36 OD2         3.4380    7.7530   12.3150 O.co2   3  ASP3       -0.5491
     37 OD1         2.9630    7.2640   10.2830 O.co2   3  ASP3       -0.5491
     38 H           1.9040    4.9370   12.8350 H       3  ASP3        0.1499
     39 N          -1.1260    5.4100   12.8770 N.am    4  ASP4       -0.2967
     40 CA         -2.5630    5.0780   12.8350 C.3     4  ASP4        0.1542
     41 C          -3.0110    4.0600   13.8730 C.2     4  ASP4        0.2411
     42 O          -2.1850    3.4450   14.5480 O.2     4  ASP4       -0.2733
     43 CB         -2.8870    4.5310   11.4410 C.3     4  ASP4        0.0706
     44 CG         -2.1990    5.3630   10.3620 C.2     4  ASP4        0.0525
     45 OD2        -2.6330    6.4730   10.1290 O.co2   4  ASP4       -0.5491
     46 OD1        -1.2160    4.9150    9.7800 O.co2   4  ASP4       -0.5491
     47 H          -0.5110    4.6680   12.7180 H       4  ASP4        0.1499
     48 N          -4.3250    3.9410   14.0210 N.am    5  THR5       -0.2951
     49 CA         -5.0020    2.9980   14.9030 C.3     5  THR5        0.1757
     50 C          -5.5530    1.8990   13.9980 C.2     5  THR5        0.2431
     51 O          -6.3860    2.0990   13.0960 O.2     5  THR5       -0.2732
     52 CB         -6.1370    3.7270   15.6530 C.3     5  THR5        0.1373
     53 OG1        -5.5100    4.6550   16.5640 O.3     5  THR5       -0.3823
     54 CG2        -7.0500    2.7790   16.4150 C.3     5  THR5        0.0340
     55 H          -4.9210    4.5310   13.5150 H       5  THR5        0.1499
     56 HG1        -5.1300    4.1410   17.2680 H       5  THR5        0.2104
     57 N          -5.1110    0.6940   14.2910 N.am    6  VAL6       -0.2979
     58 CA         -5.4870   -0.4700   13.5110 C.3     6  VAL6        0.1368
     59 C          -6.0370   -1.5590   14.3990 C.2     6  VAL6        0.2266
     60 O          -5.3920   -1.9920   15.3430 O.2     6  VAL6       -0.2865
     61 CB         -4.2440   -1.0140   12.7460 C.3     6  VAL6        0.0256
     62 CG1        -4.6860   -2.0630   11.7100 C.3     6  VAL6        0.0022
     63 CG2        -3.5030    0.1440   12.0800 C.3     6  VAL6        0.0022
     64 H          -4.5630    0.5710   15.0980 H       6  VAL6        0.1498
     65 N          -1.7460    0.0590    4.5300 N.3     1  ILE1       -0.2380
     66 CA         -0.8020    0.6900    5.4880 C.3     1  ILE1        0.1447
     67 C           0.3890   -0.2270    5.6080 C.2     1  ILE1        0.2383
     68 O           0.2480   -1.4420    5.4120 O.2     1  ILE1       -0.2736
     69 CB         -1.4160    0.8960    6.9030 C.3     1  ILE1        0.0246
     70 CG1        -2.0050   -0.4060    7.4850 C.3     1  ILE1        0.0019
     71 CG2        -2.4670    2.0060    6.7540 C.3     1  ILE1        0.0019
     72 CD1        -2.0220   -0.3420    8.9940 C.3     1  ILE1        0.0001
     73 H          -1.9240   -0.9040    4.5860 H       1  ILE1        0.1418
     74 N           1.5520    0.3030    5.9190 N.am    2  GLY2       -0.2955
     75 CA          2.7050   -0.5830    6.0270 C.3     2  GLY2        0.1757
     76 C           3.4100   -0.3870    7.3330 C.2     2  GLY2        0.2429
     77 O           3.1780    0.5860    8.0350 O.2     2  GLY2       -0.2732
     78 H           1.6700    1.2480    6.1480 H       2  GLY2        0.1499
     79 N           4.2300   -1.3500    7.6710 N.am    3  GLY3       -0.2952
     80 CA          5.0220   -1.3180    8.9030 C.3     3  GLY3        0.1757
     81 C           6.1560   -2.2830    8.6190 C.2     3  GLY3        0.2428
     82 O           6.4480   -2.5800    7.4480 O.2     3  GLY3       -0.2732
     83 H           4.3070   -2.1300    7.0860 H       3  GLY3        0.1499
     84 N           6.8680   -2.7960    9.6230 N.am    4  ILE4       -0.2969
     85 CA          7.9330   -3.7810    9.3190 C.3     4  ILE4        0.1485
     86 C           7.2350   -4.9650    8.6090 C.2     4  ILE4        0.2407
     87 O           6.0610   -5.2850    8.8760 O.2     4  ILE4       -0.2733
     88 CB          8.6310   -4.2690   10.6570 C.3     4  ILE4        0.0269
     89 CG1         9.6270   -3.2010   11.1400 C.3     4  ILE4        0.0021
     90 CG2         9.2950   -5.6670   10.4470 C.3     4  ILE4        0.0022
     91 CD1        10.6950   -2.7830   10.1340 C.3     4  ILE4        0.0001
     92 H           6.6730   -2.4910   10.5370 H       4  ILE4        0.1499
     93 N           7.9030   -5.6190    7.6900 N.am    5  GLY5       -0.2953
     94 CA          7.2590   -6.7450    7.0580 C.3     5  GLY5        0.1757
     95 C           6.4920   -6.3420    5.8610 C.2     5  GLY5        0.2429
     96 O           6.3460   -7.1800    4.9900 O.2     5  GLY5       -0.2732
     97 H           8.8060   -5.3490    7.4360 H       5  GLY5        0.1499
     98 N           5.9530   -5.1430    5.7500 N.am    6  GLY6       -0.2952
     99 CA          5.2370   -4.8370    4.5100 C.3     6  GLY6        0.1757
    100 C           3.9130   -4.1570    4.7390 C.2     6  GLY6        0.2428
    101 O           3.6660   -3.5790    5.8110 O.2     6  GLY6       -0.2732
    102 H           5.9960   -4.4620    6.4570 H       6  GLY6        0.1499
    103 N           3.1210   -4.1610    3.6670 N.am    7  PHE7       -0.2967
    104 CA          1.7840   -3.5320    3.6340 C.3     7  PHE7        0.1530
    105 C           0.6000   -4.4700    3.7910 C.2     7  PHE7        0.2409
    106 O           0.6030   -5.6120    3.3020 O.2     7  PHE7       -0.2733
    107 CB          1.5660   -2.7800    2.2870 C.3     7  PHE7        0.0553
    108 CG          2.4730   -1.6550    2.0780 C.ar    7  PHE7       -0.0200
    109 CD1         3.6880   -1.8740    1.4640 C.ar    7  PHE7       -0.0042
    110 CD2         2.1140   -0.3860    2.5180 C.ar    7  PHE7       -0.0042
    111 CE1         4.5520   -0.8130    1.2830 C.ar    7  PHE7       -0.0003
    112 CE2         2.9780    0.6850    2.3450 C.ar    7  PHE7       -0.0003
    113 CZ          4.1960    0.4580    1.7200 C.ar    7  PHE7       -0.0000
    114 H           3.4450   -4.6070    2.8560 H       7  PHE7        0.1499
    115 N          -0.4670   -3.9970    4.4030 N.am    8  ILE8       -0.2980
    116 CA         -1.6880   -4.8100    4.5560 C.3     8  ILE8        0.1368
    117 C          -2.8630   -3.9100    4.1290 C.2     8  ILE8        0.2266
    118 O          -2.8300   -2.6630    4.1580 O.2     8  ILE8       -0.2865
    119 CB         -1.9490   -5.3190    6.0470 C.3     8  ILE8        0.0256
    120 CG1        -2.1530   -4.1730    7.0180 C.3     8  ILE8        0.0021
    121 CG2        -0.7210   -6.0530    6.6020 C.3     8  ILE8        0.0022
    122 CD1        -2.7100   -4.7310    8.3460 C.3     8  ILE8        0.0001
    123 H          -0.4760   -3.0810    4.7520 H       8  ILE8        0.1498
    124 N          -8.6790    2.1060   11.4930 N.3     1  LEU1       -0.2391
    125 CA         -8.4590    1.2070   10.3480 C.3     1  LEU1        0.1330
    126 C          -8.7960   -0.1980   10.8250 C.2     1  LEU1        0.2241
    127 O          -8.3730   -0.5930   11.9180 O.2     1  LEU1       -0.2868
    128 CB         -6.9770    1.2360    9.8850 C.3     1  LEU1        0.0251
    129 CG         -6.4810    2.6330    9.6030 C.3     1  LEU1        0.0018
    130 CD2        -5.0250    2.6040    9.1800 C.3     1  LEU1        0.0001
    131 CD1        -7.3250    3.2350    8.5020 C.3     1  LEU1        0.0001
    132 H          -7.9880    2.1740   12.1780 H       1  LEU1        0.1418
    133 N          -6.3880   -7.0890    9.0360 N.3     1  PRO1       -0.2103
    134 CA         -5.7680   -8.3000    9.5950 C.3     1  PRO1        0.1487
    135 C          -4.4980   -7.9980   10.3870 C.2     1  PRO1        0.2386
    136 O          -3.3850   -8.3690   10.0280 O.2     1  PRO1       -0.2736
    137 CB         -5.5810   -9.1900    8.3420 C.3     1  PRO1        0.0282
    138 CG         -5.1280   -8.1610    7.3190 C.3     1  PRO1        0.0208
    139 CD         -6.0690   -6.9500    7.5920 C.3     1  PRO1        0.0893
    140 N          -4.6260   -7.2100   11.4320 N.am    2  THR2       -0.2953
    141 CA         -3.4530   -6.9150   12.2570 C.3     2  THR2        0.1759
    142 C          -3.2580   -8.0500   13.2660 C.2     2  THR2        0.2463
    143 O          -4.2170   -8.5850   13.8270 O.2     2  THR2       -0.2730
    144 CB         -3.6770   -5.5580   12.9560 C.3     2  THR2        0.1373
    145 OG1        -2.4930   -5.3220   13.7520 O.3     2  THR2       -0.3823
    146 CG2        -4.9990   -5.5040   13.7790 C.3     2  THR2        0.0340
    147 H          -5.5030   -6.8570   11.6900 H       2  THR2        0.1499
    148 HG1        -2.6340   -4.5450   14.3180 H       2  THR2        0.2104
    149 N          -2.0140   -8.4330   13.5640 N.am    3  PRO3       -0.2716
    150 CA         -1.7500   -9.3950   14.6380 C.3     3  PRO3        0.1518
    151 C          -2.3300   -8.9660   15.9560 C.2     3  PRO3        0.2408
    152 O          -2.7320   -9.8400   16.6990 O.2     3  PRO3       -0.2733
    153 CB         -0.2360   -9.5210   14.7180 C.3     3  PRO3        0.0310
    154 CG          0.1800   -9.1270   13.2930 C.3     3  PRO3        0.0237
    155 CD         -0.7490   -7.9540   12.9450 C.3     3  PRO3        0.0939
    156 N          -2.3900   -7.6560   16.2970 N.am    4  VAL4       -0.2980
    157 CA         -2.8980   -7.1740   17.6230 C.3     4  VAL4        0.1368
    158 C          -3.5710   -5.8310   17.4290 C.2     4  VAL4        0.2266
    159 O          -3.2620   -5.1720   16.4390 O.2     4  VAL4       -0.2865
    160 CB         -1.6660   -7.0550   18.5990 C.3     4  VAL4        0.0256
    161 CG1        -0.6620   -6.0870   17.9820 C.3     4  VAL4        0.0022
    162 CG2        -2.0440   -6.4840   19.9830 C.3     4  VAL4        0.0022
    163 H          -2.1710   -6.9600   15.6450 H       4  VAL4        0.1498
    164 N          -4.0630   -2.0370   17.8220 N.3     1  ILE1       -0.2391
    165 CA         -3.1040   -0.9700   18.0730 C.3     1  ILE1        0.1330
    166 C          -3.7370    0.3990   18.1730 C.2     1  ILE1        0.2241
    167 O          -4.5060    0.7540   17.2710 O.2     1  ILE1       -0.2868
    168 CB         -2.1040   -1.0030   16.8970 C.3     1  ILE1        0.0233
    169 CG1        -1.2290   -2.2450   16.9930 C.3     1  ILE1        0.0018
    170 CG2        -1.2610    0.2570   16.8740 C.3     1  ILE1        0.0019
    171 CD1        -1.0760   -2.6060   15.4920 C.3     1  ILE1        0.0001
    172 H          -4.5960   -1.9820   17.0060 H       1  ILE1        0.1418
@<TRIPOS>UNITY_ATOM_ATTR
16 1
charge -1
36 1
charge -1
45 1
charge -1
@<TRIPOS>BOND
     1     1     9    1
     2     1     2    1
     3     2     5    1
     4     2     3    1
     5     3     4    2
     6     5     6    1
     7     6     8    1
     8     6     7    1
     9    10    11    1
    10    10    18    1
    11    11    14    1
    12    11    12    1
    13    12    13    2
    14    14    15    1
    15    15    17   ar
    16    15    16   ar
    17    19    20    1
    18    19    23    1
    19    20    21    1
    20    21    22    2
    21    21    24   am
    22    24    25    1
    23    24    29    1
    24    25    26    1
    25    25    28    1
    26    26    30   am
    27    26    27    2
    28    30    38    1
    29    30    31    1
    30    31    34    1
    31    31    32    1
    32    32    39   am
    33    32    33    2
    34    34    35    1
    35    35    37   ar
    36    35    36   ar
    37    39    47    1
    38    39    40    1
    39    40    43    1
    40    40    41    1
    41    41    48   am
    42    41    42    2
    43    43    44    1
    44    44    46   ar
    45    44    45   ar
    46    48    55    1
    47    48    49    1
    48    49    50    1
    49    49    52    1
    50    50    51    2
    51    50    57   am
    52    52    54    1
    53    52    53    1
    54    53    56    1
    55    57    58    1
    56    57    64    1
    57    58    61    1
    58    58    59    1
    59    59    60    2
    60    61    62    1
    61    61    63    1
    62    65    73    1
    63    65    66    1
    64    66    67    1
    65    66    69    1
    66    67    68    2
    67    67    74   am
    68    69    71    1
    69    69    70    1
    70    70    72    1
    71    74    75    1
    72    74    78    1
    73    75    76    1
    74    76    79   am
    75    76    77    2
    76    79    83    1
    77    79    80    1
    78    80    81    1
    79    81    82    2
    80    81    84   am
    81    84    85    1
    82    84    92    1
    83    85    86    1
    84    85    88    1
    85    86    93   am
    86    86    87    2
    87    88    90    1
    88    88    89    1
    89    89    91    1
    90    93    94    1
    91    93    97    1
    92    94    95    1
    93    95    96    2
    94    95    98   am
    95    98    99    1
    96    98   102    1
    97    99   100    1
    98   100   103   am
    99   100   101    2
   100   103   114    1
   101   103   104    1
   102   104   107    1
   103   104   105    1
   104   105   106    2
   105   105   115   am
   106   107   108    1
   107   108   109   ar
   108   108   110   ar
   109   109   111   ar
   110   110   112   ar
   111   111   113   ar
   112   112   113   ar
   113   115   116    1
   114   115   123    1
   115   116   117    1
   116   116   119    1
   117   117   118    2
   118   119   121    1
   119   119   120    1
   120   120   122    1
   121   124   125    1
   122   124   132    1
   123   125   128    1
   124   125   126    1
   125   126   127    2
   126   128   129    1
   127   129   131    1
   128   129   130    1
   129   133   139    1
   130   133   134    1
   131   134   137    1
   132   134   135    1
   133   135   136    2
   134   135   140   am
   135   137   138    1
   136   138   139    1
   137   140   147    1
   138   140   141    1
   139   141   144    1
   140   141   142    1
   141   142   149   am
   142   142   143    2
   143   144   145    1
   144   144   146    1
   145   145   148    1
   146   149   155    1
   147   149   150    1
   148   150   153    1
   149   150   151    1
   150   151   156   am
   151   151   152    2
   152   153   154    1
   153   154   155    1
   154   156   163    1
   155   156   157    1
   156   157   158    1
   157   157   160    1
   158   158   159    2
   159   160   161    1
   160   160   162    1
   161   164   172    1
   162   164   165    1
   163   165   168    1
   164   165   166    1
   165   166   167    2
   166   168   170    1
   167   168   169    1
   168   169   171    1
