@<TRIPOS>MOLECULE
./1ohr/protein.pdb
 218 212 0 0 0
SMALL
GASTEIGER

@<TRIPOS>ATOM
      1 N          -3.4770    7.7140   33.8910 N.4     1  PRO1        0.2567
      2 CA         -2.5820    6.7220   34.5050 C.3     1  PRO1        0.1297
      3 C          -1.1680    6.9080   34.0160 C.2     1  PRO1        0.2722
      4 O          -0.9840    7.6540   33.0630 O.2     1  PRO1       -0.2690
      5 CB         -3.0830    5.3310   34.1220 C.3     1  PRO1        0.0707
      6 CG         -3.6310    5.6230   32.7400 C.3     1  PRO1        0.0673
      7 CD         -4.3390    6.9720   32.9590 C.3     1  PRO1        0.1028
      8 H1         -4.0230    8.2970   34.5500 H       1  PRO1        0.2038
      9 H2         -2.8590    8.3660   33.3500 H       1  PRO1        0.2038
     10 N          -0.2020    6.2980   34.7190 N.am    2  GLN2       -0.2937
     11 CA          1.2270    6.3220   34.3880 C.3     2  GLN2        0.1492
     12 C           1.4680    4.8550   34.1350 C.2     2  GLN2        0.2406
     13 O           1.2540    4.0290   35.0300 O.2     2  GLN2       -0.2733
     14 CB          2.1200    6.7520   35.5450 C.3     2  GLN2        0.0385
     15 CG          3.5440    6.7160   34.9810 C.3     2  GLN2        0.0870
     16 CD          4.5620    7.3680   35.9110 C.2     2  GLN2        0.2194
     17 OE1         5.1020    6.7460   36.8250 O.2     2  GLN2       -0.2753
     18 NE2         4.8690    8.6390   35.7270 N.am    2  GLN2       -0.3288
     19 H          -0.4170    5.7630   35.5100 H       2  GLN2        0.1500
     20 HE21        5.5190    9.0710   36.3090 H       2  GLN2        0.1449
     21 HE22        4.4350    9.1330   35.0000 H       2  GLN2        0.1449
     22 N           1.7910    4.5140   32.9090 N.am    3  ILE3       -0.2970
     23 CA          2.0250    3.1300   32.5160 C.3     3  ILE3        0.1485
     24 C           3.4900    2.8770   32.2920 C.2     3  ILE3        0.2407
     25 O           4.1360    3.6490   31.5790 O.2     3  ILE3       -0.2733
     26 CB          1.2200    2.8560   31.2250 C.3     3  ILE3        0.0269
     27 CG1        -0.2740    3.1500   31.4780 C.3     3  ILE3        0.0021
     28 CG2         1.4510    1.3950   30.7770 C.3     3  ILE3        0.0022
     29 CD1        -1.2240    2.9590   30.2760 C.3     3  ILE3        0.0001
     30 H           1.9250    5.2160   32.2390 H       3  ILE3        0.1499
     31 N           4.0460    1.9100   32.9960 N.am    4  THR4       -0.2951
     32 CA          5.4450    1.5820   32.7840 C.3     4  THR4        0.1757
     33 C           5.5180    0.5920   31.6390 C.2     4  THR4        0.2431
     34 O           4.4990    0.0210   31.2390 O.2     4  THR4       -0.2732
     35 CB          6.0690    1.0000   34.0540 C.3     4  THR4        0.1373
     36 OG1         5.2830   -0.1240   34.4660 O.3     4  THR4       -0.3823
     37 CG2         6.1910    2.0950   35.1250 C.3     4  THR4        0.0340
     38 H           3.5140    1.4460   33.6540 H       4  THR4        0.1499
     39 HG1         4.4520    0.2000   34.7900 H       4  THR4        0.2104
     40 N           6.7030    0.3150   31.1660 N.am    5  LEU5       -0.2979
     41 CA          6.7850   -0.5540   30.0190 C.3     5  LEU5        0.1368
     42 C           7.4190   -1.9010   30.2950 C.2     5  LEU5        0.2266
     43 O           7.9110   -2.5500   29.3780 O.2     5  LEU5       -0.2865
     44 CB          7.5170    0.3100   28.9510 C.3     5  LEU5        0.0276
     45 CG          6.7570    1.6170   28.5380 C.3     5  LEU5        0.0021
     46 CD2         7.7110    2.4810   27.6910 C.3     5  LEU5        0.0001
     47 CD1         5.5190    1.3350   27.6890 C.3     5  LEU5        0.0001
     48 H           7.5030    0.7360   31.5250 H       5  LEU5        0.1498
     49 N           3.9280   -5.2440   27.8830 N.3     1  ARG1       -0.2380
     50 CA          3.3370   -4.5160   26.7660 C.3     1  ARG1        0.1451
     51 C           2.2690   -3.5610   27.3200 C.2     1  ARG1        0.2414
     52 O           1.4670   -3.9780   28.1690 O.2     1  ARG1       -0.2734
     53 CB          2.6490   -5.4780   25.8030 C.3     1  ARG1        0.0300
     54 CG          3.6160   -6.3770   25.0540 C.3     1  ARG1        0.0447
     55 CD          2.9480   -6.9900   23.8350 C.3     1  ARG1        0.1739
     56 NE          3.9850   -7.7710   23.1510 N.pl3   1  ARG1       -0.2651
     57 CZ          3.7750   -9.0280   22.7360 C.cat   1  ARG1        0.3417
     58 NH2         2.5960   -9.6270   22.9130 N.pl3   1  ARG1       -0.2918
     59 NH1         4.7900   -9.7540   22.2620 N.pl3   1  ARG1       -0.2918
     60 H           3.9320   -6.2260   27.9100 H       1  ARG1        0.1418
     61 HE          4.8610   -7.3790   22.9880 H       1  ARG1        0.2586
     62 HH21        1.8380   -9.1470   23.3550 H       1  ARG1        0.2545
     63 HH22        2.4780  -10.5770   22.6120 H       1  ARG1        0.2545
     64 HH11        5.7160   -9.3830   22.2360 H       1  ARG1        0.2545
     65 HH12        4.6250  -10.7010   21.9790 H       1  ARG1        0.2545
     66 N           2.1720   -2.3210   26.8420 N.am    2  PRO2       -0.2729
     67 CA          1.1290   -1.4060   27.3630 C.3     2  PRO2        0.1401
     68 C          -0.2570   -1.7050   26.7960 C.2     2  PRO2        0.2269
     69 O          -0.7550   -1.0420   25.8860 O.2     2  PRO2       -0.2865
     70 CB          1.6570    0.0160   27.0420 C.3     2  PRO2        0.0296
     71 CG          2.5720   -0.2390   25.8230 C.3     2  PRO2        0.0237
     72 CD          3.1780   -1.6430   26.0140 C.3     2  PRO2        0.0939
     73 N          -4.3950   -2.0810   27.0340 N.3     1  VAL1       -0.2391
     74 CA         -5.4630   -1.4750   27.8290 C.3     1  VAL1        0.1330
     75 C          -6.7600   -1.9050   27.1790 C.2     1  VAL1        0.2241
     76 O          -6.7750   -2.4660   26.0960 O.2     1  VAL1       -0.2868
     77 CB         -5.3670    0.0970   27.8520 C.3     1  VAL1        0.0233
     78 CG2        -4.1040    0.5680   28.6530 C.3     1  VAL1        0.0019
     79 CG1        -5.3990    0.6090   26.3920 C.3     1  VAL1        0.0019
     80 H          -4.5450   -2.1900   26.0730 H       1  VAL1        0.1418
     81 N          -3.0370   -2.2420   22.2740 N.3     1  LEU1       -0.2380
     82 CA         -1.6910   -1.7940   22.6340 C.3     1  LEU1        0.1447
     83 C          -1.5040   -0.3000   22.4140 C.2     1  LEU1        0.2383
     84 O          -1.8240    0.1860   21.3190 O.2     1  LEU1       -0.2736
     85 CB         -0.7550   -2.6570   21.7520 C.3     1  LEU1        0.0264
     86 CG          0.7640   -2.4430   21.8430 C.3     1  LEU1        0.0019
     87 CD2         1.2540   -3.0150   23.1750 C.3     1  LEU1        0.0001
     88 CD1         1.4770   -3.1210   20.6430 C.3     1  LEU1        0.0001
     89 H          -3.1870   -2.5110   21.3490 H       1  LEU1        0.1418
     90 N          -1.0320    0.4580   23.4170 N.am    2  LEU2       -0.2972
     91 CA         -0.7690    1.8860   23.2100 C.3     2  LEU2        0.1486
     92 C           0.5510    1.9180   22.4140 C.2     2  LEU2        0.2406
     93 O           1.6360    1.6030   22.9180 O.2     2  LEU2       -0.2733
     94 CB         -0.6400    2.5540   24.5760 C.3     2  LEU2        0.0290
     95 CG         -1.9490    2.5190   25.4110 C.3     2  LEU2        0.0021
     96 CD2        -1.7240    3.4120   26.6350 C.3     2  LEU2        0.0001
     97 CD1        -3.1590    3.0280   24.6090 C.3     2  LEU2        0.0001
     98 H          -0.8720    0.0460   24.2930 H       2  LEU2        0.1499
     99 N           0.5580    2.4200   21.2060 N.am    3  ASP3       -0.2967
    100 CA          1.7680    2.3420   20.4190 C.3     3  ASP3        0.1542
    101 C           2.2440    3.6680   19.8640 C.2     3  ASP3        0.2411
    102 O           1.7290    4.1260   18.8520 O.2     3  ASP3       -0.2733
    103 CB          1.3500    1.2860   19.3920 C.3     3  ASP3        0.0706
    104 CG          2.4450    0.9660   18.3810 C.2     3  ASP3        0.0525
    105 OD2         3.5320    1.5210   18.4380 O.co2   3  ASP3       -0.5491
    106 OD1         2.1910    0.1180   17.5410 O.co2   3  ASP3       -0.5491
    107 H          -0.2420    2.8610   20.8410 H       3  ASP3        0.1499
    108 N           3.2290    4.3120   20.4800 N.am    4  THR4       -0.2951
    109 CA          3.7170    5.6210   19.9990 C.3     4  THR4        0.1757
    110 C           4.4210    5.5400   18.6630 C.2     4  THR4        0.2431
    111 O           4.7240    6.5660   18.0830 O.2     4  THR4       -0.2732
    112 CB          4.6610    6.1790   21.0140 C.3     4  THR4        0.1373
    113 OG1         5.7800    5.2800   21.1530 O.3     4  THR4       -0.3823
    114 CG2         3.9010    6.3480   22.3770 C.3     4  THR4        0.0340
    115 H           3.5990    3.9770   21.3300 H       4  THR4        0.1499
    116 HG1         6.3940    5.4800   20.4200 H       4  THR4        0.2104
    117 N           4.8260    4.3390   18.2230 N.am    5  GLY5       -0.2963
    118 CA          5.4980    4.0920   16.9290 C.3     5  GLY5        0.1627
    119 C           4.4580    3.9440   15.7970 C.2     5  GLY5        0.2288
    120 O           4.8110    3.8490   14.6090 O.2     5  GLY5       -0.2864
    121 H           4.6290    3.5750   18.7900 H       5  GLY5        0.1499
    122 N         -10.8390    4.8820   25.5620 N.3     1  ILE1       -0.2380
    123 CA         -9.5810    4.2500   25.9710 C.3     1  ILE1        0.1447
    124 C          -9.4250    4.5770   27.4160 C.2     1  ILE1        0.2383
    125 O          -9.2260    5.7290   27.8320 O.2     1  ILE1       -0.2736
    126 CB         -8.3900    4.8190   25.1410 C.3     1  ILE1        0.0246
    127 CG1        -8.5610    4.4160   23.6780 C.3     1  ILE1        0.0019
    128 CG2        -7.0290    4.2940   25.7010 C.3     1  ILE1        0.0019
    129 CD1        -8.5050    5.6150   22.7320 C.3     1  ILE1        0.0001
    130 H         -10.9140    5.8620   25.6080 H       1  ILE1        0.1418
    131 N          -9.6080    3.5590   28.2320 N.am    2  CYS2       -0.2975
    132 CA         -9.4950    3.7330   29.7000 C.3     2  CYS2        0.1486
    133 C         -10.3960    4.8800   30.1190 C.2     2  CYS2        0.2276
    134 O         -10.0530    5.8020   30.8610 O.2     2  CYS2       -0.2865
    135 CB         -8.0000    3.9840   30.0520 C.3     2  CYS2        0.0962
    136 SG         -7.0790    2.4420   30.0640 S.3     2  CYS2       -0.0799
    137 H          -9.7680    2.6660   27.8560 H       2  CYS2        0.1498
    138 N         -11.2780    7.4570   28.4490 N.3     1  HIS1       -0.2388
    139 CA        -11.1850    8.7530   27.7720 C.3     1  HIS1        0.1388
    140 C         -11.8250    8.6500   26.4170 C.2     1  HIS1        0.2245
    141 O         -11.6090    7.6590   25.7490 O.2     1  HIS1       -0.2868
    142 CB         -9.7270    9.1790   27.6420 C.3     1  HIS1        0.0672
    143 CG         -9.1850    9.3710   28.9950 C.2     1  HIS1        0.0392
    144 ND1        -8.9420    8.3820   29.8960 N.pl3   1  HIS1       -0.3185
    145 CD2        -8.8010   10.5770   29.5740 C.2     1  HIS1        0.0692
    146 CE1        -8.4290    8.9530   31.0290 C.3     1  HIS1        0.1815
    147 NE2        -8.3390   10.2920   30.8180 N.pl3   1  HIS1       -0.3146
    148 H         -10.6120    6.7730   28.3220 H       1  HIS1        0.1418
    149 HD1        -9.1410    7.4170   29.8040 H       1  HIS1        0.1481
    150 HE2        -7.9030   10.9260   31.4340 H       1  HIS1        0.1484
    151 N          -3.4270    1.1920   19.2060 N.3     1  ILE1       -0.2391
    152 CA         -3.9590    2.5560   19.2900 C.3     1  ILE1        0.1330
    153 C          -2.7300    3.3770   18.9150 C.2     1  ILE1        0.2241
    154 O          -1.7230    3.3170   19.6120 O.2     1  ILE1       -0.2868
    155 CB         -4.4530    2.9010   20.7290 C.3     1  ILE1        0.0233
    156 CG1        -5.5700    1.9210   21.2530 C.3     1  ILE1        0.0018
    157 CG2        -4.9980    4.3440   20.6680 C.3     1  ILE1        0.0019
    158 CD1        -6.8270    1.8900   20.3270 C.3     1  ILE1        0.0001
    159 H          -2.7690    0.8970   19.8710 H       1  ILE1        0.1418
    160 N          -3.8810    8.6940   20.4270 N.3     1  LEU1       -0.2391
    161 CA         -3.1640    8.9590   21.6730 C.3     1  LEU1        0.1330
    162 C          -3.1280   10.4480   21.9120 C.2     1  LEU1        0.2241
    163 O          -3.2400   10.8740   23.0600 O.2     1  LEU1       -0.2868
    164 CB         -1.7260    8.4120   21.6490 C.3     1  LEU1        0.0251
    165 CG         -1.6170    6.8240   21.5560 C.3     1  LEU1        0.0018
    166 CD1        -0.1600    6.4200   21.2340 C.3     1  LEU1        0.0001
    167 CD2        -2.2360    6.1840   22.8230 C.3     1  LEU1        0.0001
    168 H          -3.4480    8.2280   19.6810 H       1  LEU1        0.1418
    169 N          -6.3480   11.6950   23.6270 N.3     1  ILE1       -0.2380
    170 CA         -6.5320   11.5090   25.0730 C.3     1  ILE1        0.1447
    171 C          -5.4510   12.1670   25.9010 C.2     1  ILE1        0.2383
    172 O          -5.3800   11.9790   27.1110 O.2     1  ILE1       -0.2736
    173 CB         -6.6260   10.0070   25.4020 C.3     1  ILE1        0.0246
    174 CG1        -5.3520    9.2330   25.0680 C.3     1  ILE1        0.0019
    175 CG2        -7.8270    9.4800   24.6130 C.3     1  ILE1        0.0019
    176 CD1        -5.3200    7.8200   25.7000 C.3     1  ILE1        0.0001
    177 H          -5.9160   11.0030   23.0870 H       1  ILE1        0.1418
    178 N          -4.5880   12.9450   25.2960 N.am    2  GLY2       -0.2955
    179 CA         -3.5340   13.6290   26.0530 C.3     2  GLY2        0.1757
    180 C          -2.4080   12.7500   26.5170 C.2     2  GLY2        0.2429
    181 O          -1.7250   13.0880   27.4840 O.2     2  GLY2       -0.2732
    182 H          -4.6800   13.1110   24.3380 H       2  GLY2        0.1499
    183 N          -2.0500   11.7140   25.7700 N.am    3  CYS3       -0.2962
    184 CA         -0.9750   10.8130   26.1940 C.3     3  CYS3        0.1603
    185 C           0.4100   11.3410   25.8430 C.2     3  CYS3        0.2416
    186 O           0.5900   11.8560   24.7380 O.2     3  CYS3       -0.2733
    187 CB         -1.2860    9.4620   25.5190 C.3     3  CYS3        0.0976
    188 SG         -0.1060    8.2070   25.9810 S.3     3  CYS3       -0.0798
    189 H          -2.5090   11.5620   24.9130 H       3  CYS3        0.1499
    190 N           1.4110   11.2650   26.7200 N.am    4  THR4       -0.2951
    191 CA          2.7660   11.7210   26.3980 C.3     4  THR4        0.1757
    192 C           3.7660   10.6740   26.8460 C.2     4  THR4        0.2431
    193 O           3.4410    9.7810   27.6300 O.2     4  THR4       -0.2732
    194 CB          3.1600   13.0420   27.1320 C.3     4  THR4        0.1373
    195 OG1         2.9250   12.9320   28.5740 O.3     4  THR4       -0.3823
    196 CG2         2.3690   14.2210   26.5030 C.3     4  THR4        0.0340
    197 H           1.2720   10.8810   27.6060 H       4  THR4        0.1499
    198 HG1         1.9610   12.9310   28.7280 H       4  THR4        0.2104
    199 N           4.9580   10.6790   26.3090 N.am    5  LEU5       -0.2969
    200 CA          6.0120    9.7600   26.7470 C.3     5  LEU5        0.1486
    201 C           6.7540   10.5600   27.7890 C.2     5  LEU5        0.2406
    202 O           6.9910   11.7530   27.5470 O.2     5  LEU5       -0.2733
    203 CB          7.0020    9.4520   25.6090 C.3     5  LEU5        0.0290
    204 CG          6.5710    8.2400   24.8020 C.3     5  LEU5        0.0021
    205 CD1         7.3810    8.2570   23.5070 C.3     5  LEU5        0.0001
    206 CD2         6.7200    6.9430   25.6500 C.3     5  LEU5        0.0001
    207 H           5.1730   11.3390   25.6190 H       5  LEU5        0.1499
    208 N           7.2590    9.9910   28.8690 N.am    6  ASN6       -0.2976
    209 CA          7.9710   10.8130   29.8840 C.3     6  ASN6        0.1460
    210 C           9.1310   10.0790   30.4520 C.2     6  ASN6        0.2271
    211 O           8.9930    8.8770   30.6810 O.2     6  ASN6       -0.2865
    212 CB          7.0650   11.1720   31.0970 C.3     6  ASN6        0.1124
    213 CG          5.9200   12.0790   30.6340 C.2     6  ASN6        0.2215
    214 OD1         6.0320   13.2970   30.5650 O.2     6  ASN6       -0.2753
    215 ND2         4.7930   11.5280   30.2350 N.am    6  ASN6       -0.3287
    216 H           7.2060    9.0210   28.9850 H       6  ASN6        0.1498
    217 HD21        4.0510   12.0900   29.9310 H       6  ASN6        0.1449
    218 HD22        4.6900   10.5700   30.2490 H       6  ASN6        0.1449
@<TRIPOS>UNITY_ATOM_ATTR
1 1
charge 1
105 1
charge -1
@<TRIPOS>BOND
     1     1     7    1
     2     1     9    1
     3     1     2    1
     4     1     8    1
     5     2     3    1
     6     2     5    1
     7     3     4    2
     8     3    10   am
     9     5     6    1
    10     6     7    1
    11    10    11    1
    12    10    19    1
    13    11    12    1
    14    11    14    1
    15    12    22   am
    16    12    13    2
    17    14    15    1
    18    15    16    1
    19    16    18   am
    20    16    17    2
    21    18    21    1
    22    18    20    1
    23    22    30    1
    24    22    23    1
    25    23    26    1
    26    23    24    1
    27    24    25    2
    28    24    31   am
    29    26    28    1
    30    26    27    1
    31    27    29    1
    32    31    32    1
    33    31    38    1
    34    32    33    1
    35    32    35    1
    36    33    40   am
    37    33    34    2
    38    35    36    1
    39    35    37    1
    40    36    39    1
    41    40    41    1
    42    40    48    1
    43    41    44    1
    44    41    42    1
    45    42    43    2
    46    44    45    1
    47    45    47    1
    48    45    46    1
    49    49    50    1
    50    49    60    1
    51    50    53    1
    52    50    51    1
    53    51    66   am
    54    51    52    2
    55    53    54    1
    56    54    55    1
    57    55    56    1
    58    56    57    1
    59    56    61    1
    60    57    59    2
    61    57    58    1
    62    58    63    1
    63    58    62    1
    64    59    65    1
    65    59    64    1
    66    66    72    1
    67    66    67    1
    68    67    68    1
    69    67    70    1
    70    68    69    2
    71    70    71    1
    72    71    72    1
    73    73    80    1
    74    73    74    1
    75    74    75    1
    76    74    77    1
    77    75    76    2
    78    77    79    1
    79    77    78    1
    80    81    89    1
    81    81    82    1
    82    82    85    1
    83    82    83    1
    84    83    84    2
    85    83    90   am
    86    85    86    1
    87    86    88    1
    88    86    87    1
    89    90    91    1
    90    90    98    1
    91    91    92    1
    92    91    94    1
    93    92    99   am
    94    92    93    2
    95    94    95    1
    96    95    97    1
    97    95    96    1
    98    99   100    1
    99    99   107    1
   100   100   103    1
   101   100   101    1
   102   101   102    2
   103   101   108   am
   104   103   104    1
   105   104   106   ar
   106   104   105   ar
   107   108   109    1
   108   108   115    1
   109   109   110    1
   110   109   112    1
   111   110   111    2
   112   110   117   am
   113   112   113    1
   114   112   114    1
   115   113   116    1
   116   117   118    1
   117   117   121    1
   118   118   119    1
   119   119   120    2
   120   122   130    1
   121   122   123    1
   122   123   126    1
   123   123   124    1
   124   124   125    2
   125   124   131   am
   126   126   127    1
   127   126   128    1
   128   127   129    1
   129   131   137    1
   130   131   132    1
   131   132   135    1
   132   132   133    1
   133   133   134    2
   134   135   136    1
   135   138   139    1
   136   138   148    1
   137   139   140    1
   138   139   142    1
   139   140   141    2
   140   142   143    1
   141   143   145    2
   142   143   144    1
   143   144   149    1
   144   144   146    1
   145   145   147    1
   146   146   147    1
   147   147   150    1
   148   151   152    1
   149   151   159    1
   150   152   153    1
   151   152   155    1
   152   153   154    2
   153   155   157    1
   154   155   156    1
   155   156   158    1
   156   160   168    1
   157   160   161    1
   158   161   164    1
   159   161   162    1
   160   162   163    2
   161   164   165    1
   162   165   166    1
   163   165   167    1
   164   169   177    1
   165   169   170    1
   166   170   173    1
   167   170   171    1
   168   171   178   am
   169   171   172    2
   170   173   175    1
   171   173   174    1
   172   174   176    1
   173   178   182    1
   174   178   179    1
   175   179   180    1
   176   180   183   am
   177   180   181    2
   178   183   189    1
   179   183   184    1
   180   184   187    1
   181   184   185    1
   182   185   186    2
   183   185   190   am
   184   187   188    1
   185   190   191    1
   186   190   197    1
   187   191   192    1
   188   191   194    1
   189   192   199   am
   190   192   193    2
   191   194   196    1
   192   194   195    1
   193   195   198    1
   194   199   207    1
   195   199   200    1
   196   200   203    1
   197   200   201    1
   198   201   202    2
   199   201   208   am
   200   203   204    1
   201   204   205    1
   202   204   206    1
   203   208   216    1
   204   208   209    1
   205   209   210    1
   206   209   212    1
   207   210   211    2
   208   212   213    1
   209   213   215   am
   210   213   214    2
   211   215   217    1
   212   215   218    1
