@<TRIPOS>MOLECULE
./2hob/protein.pdb
 154 147 0 0 0
SMALL
GASTEIGER

@<TRIPOS>ATOM
      1 N          29.0310  -23.2510  108.4140 N.3     1  PHE1       -0.1241
      2 CA         29.6690  -24.5320  108.6680 C.3     1  PHE1        0.1605
      3 C          29.3770  -25.4600  107.4880 C.2     1  PHE1        0.2264
      4 O          28.3490  -25.3120  106.8420 O.2     1  PHE1       -0.2867
      5 CB         29.0970  -25.1400  109.9340 C.3     1  PHE1        0.0534
      6 CG         29.6520  -24.5390  111.1650 C.ar    1  PHE1       -0.0203
      7 CD1        30.9650  -24.8600  111.5720 C.ar    1  PHE1       -0.0042
      8 CD2        28.8820  -23.6630  111.9310 C.ar    1  PHE1       -0.0042
      9 CE1        31.5150  -24.2930  112.7590 C.ar    1  PHE1       -0.0003
     10 CE2        29.4170  -23.0820  113.1190 C.ar    1  PHE1       -0.0003
     11 CZ         30.7220  -23.4010  113.5300 C.ar    1  PHE1       -0.0000
     12 N          20.1980  -27.3570  121.0770 N.3     1  VAL1       -0.1245
     13 CA         20.5570  -26.2500  121.9490 C.3     1  VAL1        0.1561
     14 C          19.6180  -25.0790  121.6440 C.2     1  VAL1        0.2260
     15 O          19.1410  -24.9240  120.5040 O.2     1  VAL1       -0.2867
     16 CB         22.0280  -25.8200  121.6590 C.3     1  VAL1        0.0252
     17 CG2        22.3360  -24.4810  122.3290 C.3     1  VAL1        0.0019
     18 CG1        23.0080  -26.9310  122.1270 C.3     1  VAL1        0.0019
     19 N          19.7930  -21.3680  121.2370 N.3     1  ILE1       -0.1245
     20 CA         20.7760  -20.2760  121.2230 C.3     1  ILE1        0.1561
     21 C          20.2120  -18.9780  121.7540 C.2     1  ILE1        0.2260
     22 O          18.9870  -18.7770  121.7670 O.2     1  ILE1       -0.2867
     23 CB         21.3880  -20.0000  119.8090 C.3     1  ILE1        0.0252
     24 CG1        20.2960  -19.7900  118.7800 C.3     1  ILE1        0.0019
     25 CG2        22.3720  -21.0900  119.4400 C.3     1  ILE1        0.0019
     26 CD1        19.7630  -18.4250  118.8070 C.3     1  ILE1        0.0001
     27 N          21.9500  -12.6190  119.5650 N.3     1  GLY1       -0.1210
     28 CA         23.2940  -12.1900  119.2650 C.3     1  GLY1        0.1956
     29 C          24.1580  -13.3400  118.7670 C.2     1  GLY1        0.2612
     30 O          25.1580  -13.0950  118.0880 O.2     1  GLY1       -0.2717
     31 N          23.7880  -14.5920  119.0710 N.am    2  GLN2       -0.1965
     32 CA         24.5820  -15.7140  118.6220 C.3     2  GLN2        0.1733
     33 C          24.2900  -15.9900  117.1600 C.2     2  GLN2        0.2617
     34 O          23.2400  -15.6170  116.6220 O.2     2  GLN2       -0.2715
     35 CB         24.3180  -16.9840  119.4460 C.3     2  GLN2        0.0408
     36 CG         24.9500  -17.0030  120.8770 C.3     2  GLN2        0.0908
     37 CD         24.7660  -18.3890  121.5720 C.2     2  GLN2        0.2608
     38 OE1        23.7180  -18.6780  122.1860 O.2     2  GLN2       -0.2717
     39 NE2        25.7840  -19.2680  121.4260 N.am    2  GLN2       -0.0878
     40 N          25.2140  -16.6690  116.5260 N.am    3  THR3       -0.1937
     41 CA         25.0630  -16.9540  115.1110 C.3     3  THR3        0.2028
     42 C          24.9530  -18.4540  114.8410 C.2     3  THR3        0.2642
     43 O          25.3150  -19.2920  115.6790 O.2     3  THR3       -0.2714
     44 CB         26.2800  -16.4490  114.3330 C.3     3  THR3        0.1808
     45 OG1        27.4610  -17.0740  114.8670 O.3     3  THR3       -0.2208
     46 CG2        26.4030  -14.9150  114.4310 C.3     3  THR3        0.0379
     47 N          24.4850  -18.7790  113.6400 N.am    4  PHE4       -0.1973
     48 CA         24.3880  -20.1670  113.2300 C.3     4  PHE4        0.1639
     49 C          24.2410  -20.2360  111.7070 C.2     4  PHE4        0.2290
     50 O          24.0200  -19.2220  111.0410 O.2     4  PHE4       -0.2864
     51 CB         23.2170  -20.8660  113.9500 C.3     4  PHE4        0.0560
     52 CG         21.8670  -20.2090  113.7370 C.ar    4  PHE4       -0.0200
     53 CD1        21.0490  -20.6090  112.6930 C.ar    4  PHE4       -0.0042
     54 CD2        21.3930  -19.2270  114.6200 C.ar    4  PHE4       -0.0042
     55 CE1        19.7910  -20.0650  112.5030 C.ar    4  PHE4       -0.0003
     56 CE2        20.1200  -18.6670  114.4540 C.ar    4  PHE4       -0.0003
     57 CZ         19.3110  -19.0900  113.3870 C.ar    4  PHE4       -0.0000
     58 N          25.0240  -18.0830  106.6610 N.3     1  GLN1       -0.1245
     59 CA         25.2070  -17.8070  108.0680 C.3     1  GLN1        0.1566
     60 C          24.2940  -16.6870  108.4830 C.2     1  GLN1        0.2260
     61 O          23.9740  -15.8040  107.6840 O.2     1  GLN1       -0.2867
     62 CB         26.6960  -17.4090  108.2660 C.3     1  GLN1        0.0367
     63 CG         27.1660  -17.2620  109.6650 C.3     1  GLN1        0.0905
     64 CD         27.3380  -18.5790  110.3480 C.2     1  GLN1        0.2608
     65 OE1        27.0400  -19.6190  109.7720 O.2     1  GLN1       -0.2717
     66 NE2        27.8490  -18.5500  111.5900 N.am    1  GLN1       -0.0878
     67 N          25.0810  -25.3390  114.3730 N.3     1  ASN1       -0.1225
     68 CA         26.4880  -25.0190  114.5700 C.3     1  ASN1        0.1785
     69 C          27.1420  -26.3850  114.6640 C.2     1  ASN1        0.2597
     70 O          26.4790  -27.3700  115.0360 O.2     1  ASN1       -0.2718
     71 CB         26.6940  -24.2450  115.8900 C.3     1  ASN1        0.1169
     72 CG         26.3350  -22.8020  115.7480 C.2     1  ASN1        0.2627
     73 OD1        27.0510  -22.0760  115.1010 O.2     1  ASN1       -0.2716
     74 ND2        25.2270  -22.3800  116.3200 N.am    1  ASN1       -0.0877
     75 N          28.4220  -26.4600  114.3260 N.am    2  ILE2       -0.1966
     76 CA         29.1380  -27.7280  114.4090 C.3     2  ILE2        0.1727
     77 C          30.3650  -27.5310  115.2540 C.2     2  ILE2        0.2616
     78 O          31.1590  -26.6050  115.0020 O.2     2  ILE2       -0.2715
     79 CB         29.6270  -28.2370  113.0410 C.3     2  ILE2        0.0290
     80 CG1        28.4430  -28.3940  112.0950 C.3     2  ILE2        0.0022
     81 CG2        30.3210  -29.5920  113.1980 C.3     2  ILE2        0.0023
     82 CD1        27.2530  -29.0470  112.7700 C.3     2  ILE2        0.0001
     83 N          30.5070  -28.3840  116.2650 N.am    3  ASP3       -0.1973
     84 CA         31.6770  -28.3610  117.1210 C.3     3  ASP3        0.1651
     85 C          32.3090  -29.7470  116.9780 C.2     3  ASP3        0.2291
     86 O          31.7190  -30.7710  117.3590 O.2     3  ASP3       -0.2864
     87 CB         31.2950  -28.0760  118.5670 C.3     3  ASP3        0.0714
     88 CG         32.5120  -27.7690  119.4240 C.2     3  ASP3        0.0525
     89 OD1        33.3990  -27.0020  118.9540 O.co2   3  ASP3       -0.5491
     90 OD2        32.5810  -28.3040  120.5620 O.co2   3  ASP3       -0.5491
     91 N          25.1560  -29.1460  116.5900 N.3     1  SER1       -0.1217
     92 CA         24.2460  -28.5970  117.5790 C.3     1  SER1        0.1889
     93 CB         23.0990  -27.9050  116.8370 C.2     1  SER1        0.2288
     94 OG         23.2690  -26.7970  116.3350 O.2     1  SER1       -0.2866
     95 C          24.9700  -27.5940  118.4980 C.3     1  SER1        0.2089
     96 O          25.5910  -28.2800  119.5850 O.3     1  SER1       -0.2183
     97 N          19.8360  -25.7460  116.4440 N.3     1  CYS1       -0.1235
     98 CA         19.2670  -24.7080  117.2610 C.3     1  CYS1        0.1677
     99 C          18.0830  -24.0100  116.6740 C.2     1  CYS1        0.2270
    100 O          17.4770  -23.1930  117.3590 O.2     1  CYS1       -0.2867
    101 CB         20.3470  -23.6540  117.5890 C.3     1  CYS1        0.0956
    102 SG         21.0150  -22.8280  116.0960 S.3     1  CYS1       -0.0801
    103 N          34.1260  -11.2120  127.9340 N.3     1  ILE1       -0.1245
    104 CA         34.1410  -12.1260  126.7930 C.3     1  ILE1        0.1561
    105 C          35.1980  -11.7120  125.7620 C.2     1  ILE1        0.2260
    106 O          35.7980  -12.5600  125.0770 O.2     1  ILE1       -0.2867
    107 CB         32.7350  -12.1890  126.1070 C.3     1  ILE1        0.0252
    108 CG1        31.7580  -12.9100  127.0410 C.3     1  ILE1        0.0019
    109 CG2        32.8140  -12.9360  124.7460 C.3     1  ILE1        0.0019
    110 CD1        30.3190  -12.7210  126.6570 C.3     1  ILE1        0.0001
    111 N          30.1990  -13.0960  116.0120 N.3     1  THR1       -0.1204
    112 CA         30.4530  -13.1290  117.4430 C.3     1  THR1        0.1979
    113 C          31.9710  -13.2170  117.7380 C.2     1  THR1        0.2460
    114 O          32.8070  -13.4030  116.8500 O.2     1  THR1       -0.2732
    115 CB         29.8250  -14.3740  118.0800 C.3     1  THR1        0.1783
    116 OG1        30.4670  -15.5460  117.5480 O.3     1  THR1       -0.2211
    117 CG2        28.3400  -14.4450  117.7820 C.3     1  THR1        0.0376
    118 N          32.3420  -13.0420  119.0160 N.am    2  PRO2       -0.2717
    119 CA         33.7520  -13.1400  119.3940 C.3     2  PRO2        0.1535
    120 C          34.2570  -14.5350  119.0060 C.2     2  PRO2        0.2599
    121 O          35.3910  -14.6950  118.5560 O.2     2  PRO2       -0.2715
    122 CB         33.7140  -12.9390  120.9000 C.3     2  PRO2        0.0310
    123 CG         32.6430  -11.8910  121.0700 C.3     2  PRO2        0.0237
    124 CD         31.5610  -12.2840  120.0180 C.3     2  PRO2        0.0939
    125 N          33.4060  -15.5460  119.1810 N.am    3  PHE3       -0.1960
    126 CA         33.7390  -16.9170  118.8030 C.3     3  PHE3        0.1771
    127 C          33.9480  -17.0350  117.2790 C.2     3  PHE3        0.2619
    128 O          34.8430  -17.7260  116.8260 O.2     3  PHE3       -0.2715
    129 CB         32.6040  -17.8750  119.2280 C.3     3  PHE3        0.0574
    130 CG         32.8040  -19.2920  118.7500 C.ar    3  PHE3       -0.0200
    131 CD2        33.4110  -20.2370  119.5760 C.ar    3  PHE3       -0.0042
    132 CD1        32.4350  -19.6740  117.4470 C.ar    3  PHE3       -0.0042
    133 CE2        33.6540  -21.5380  119.1230 C.ar    3  PHE3       -0.0003
    134 CE1        32.6780  -20.9800  116.9820 C.ar    3  PHE3       -0.0003
    135 CZ         33.2900  -21.9110  117.8310 C.ar    3  PHE3       -0.0000
    136 N          33.0920  -16.4000  116.4900 N.am    4  ASP4       -0.1973
    137 CA         33.2390  -16.4450  115.0270 C.3     4  ASP4        0.1651
    138 C          34.5640  -15.8310  114.5970 C.2     4  ASP4        0.2291
    139 O          35.2010  -16.3030  113.6470 O.2     4  ASP4       -0.2864
    140 CB         32.0980  -15.6970  114.3210 C.3     4  ASP4        0.0714
    141 CG         30.7330  -16.3200  114.6040 C.2     4  ASP4        0.0525
    142 OD2        30.6970  -17.5130  115.0030 O.co2   4  ASP4       -0.5491
    143 OD1        29.7250  -15.6090  114.4260 O.co2   4  ASP4       -0.5491
    144 N          37.4150  -18.2530  115.5140 N.3     1  ARG1       -0.1245
    145 CA         37.3240  -19.3930  114.6060 C.3     1  ARG1        0.1563
    146 C          37.9620  -19.0750  113.2420 C.2     1  ARG1        0.2260
    147 O          38.7570  -19.8450  112.7340 O.2     1  ARG1       -0.2867
    148 CB         35.8300  -19.7900  114.3970 C.3     1  ARG1        0.0307
    149 CG         35.5120  -20.8870  113.3440 C.3     1  ARG1        0.0489
    150 CD         33.9570  -20.9920  112.9770 C.3     1  ARG1        0.2205
    151 NE         33.7760  -21.7070  111.6960 N.pl3   1  ARG1       -0.0865
    152 CZ         32.7400  -21.5920  110.8500 C.cat   1  ARG1        0.5346
    153 NH2        31.7000  -20.7920  111.1040 N.pl3   1  ARG1        0.1354
    154 NH1        32.7930  -22.2250  109.6740 N.pl3   1  ARG1        0.1354
@<TRIPOS>UNITY_ATOM_ATTR
89 1
charge -1
142 1
charge -1
@<TRIPOS>BOND
     1     1     2    1
     2     2     3    1
     3     2     5    1
     4     3     4    2
     5     5     6    1
     6     6     7   ar
     7     6     8   ar
     8     7     9   ar
     9     8    10   ar
    10     9    11   ar
    11    10    11   ar
    12    12    13    1
    13    13    14    1
    14    13    16    1
    15    14    15    2
    16    16    18    1
    17    16    17    1
    18    19    20    1
    19    20    23    1
    20    20    21    1
    21    21    22    2
    22    23    24    1
    23    23    25    1
    24    24    26    1
    25    27    28    1
    26    28    29    1
    27    29    30    2
    28    29    31   am
    29    31    32    1
    30    32    33    1
    31    32    35    1
    32    33    40   am
    33    33    34    2
    34    35    36    1
    35    36    37    1
    36    37    39   am
    37    37    38    2
    38    40    41    1
    39    41    44    1
    40    41    42    1
    41    42    47   am
    42    42    43    2
    43    44    46    1
    44    44    45    1
    45    47    48    1
    46    48    49    1
    47    48    51    1
    48    49    50    2
    49    51    52    1
    50    52    53   ar
    51    52    54   ar
    52    53    55   ar
    53    54    56   ar
    54    55    57   ar
    55    56    57   ar
    56    58    59    1
    57    59    62    1
    58    59    60    1
    59    60    61    2
    60    62    63    1
    61    63    64    1
    62    64    65    2
    63    64    66   am
    64    67    68    1
    65    68    69    1
    66    68    71    1
    67    69    75   am
    68    69    70    2
    69    71    72    1
    70    72    73    2
    71    72    74   am
    72    75    76    1
    73    76    79    1
    74    76    77    1
    75    77    78    2
    76    77    83   am
    77    79    80    1
    78    79    81    1
    79    80    82    1
    80    83    84    1
    81    84    85    1
    82    84    87    1
    83    85    86    2
    84    87    88    1
    85    88    89   ar
    86    88    90   ar
    87    91    92    1
    88    92    93    1
    89    92    95    1
    90    93    94    2
    91    95    96    1
    92    97    98    1
    93    98    99    1
    94    98   101    1
    95    99   100    2
    96   101   102    1
    97   103   104    1
    98   104   105    1
    99   104   107    1
   100   105   106    2
   101   107   109    1
   102   107   108    1
   103   108   110    1
   104   111   112    1
   105   112   113    1
   106   112   115    1
   107   113   114    2
   108   113   118   am
   109   115   116    1
   110   115   117    1
   111   118   119    1
   112   118   124    1
   113   119   120    1
   114   119   122    1
   115   120   121    2
   116   120   125   am
   117   122   123    1
   118   123   124    1
   119   125   126    1
   120   126   127    1
   121   126   129    1
   122   127   136   am
   123   127   128    2
   124   129   130    1
   125   130   132   ar
   126   130   131   ar
   127   131   133   ar
   128   132   134   ar
   129   133   135   ar
   130   134   135   ar
   131   136   137    1
   132   137   140    1
   133   137   138    1
   134   138   139    2
   135   140   141    1
   136   141   143   ar
   137   141   142   ar
   138   144   145    1
   139   145   146    1
   140   145   148    1
   141   146   147    2
   142   148   149    1
   143   149   150    1
   144   150   151    1
   145   151   152    2
   146   152   154    1
   147   152   153    1
