@<TRIPOS>MOLECULE
./1apu/ligand.pdb
 34 33 0 0 0
SMALL
GASTEIGER

@<TRIPOS>ATOM
      1  N         21.9000    9.7750   20.8850 N.am    1  32L1       -0.2031
      2  CA        23.3400   10.1170   20.8750 C.3     1  32L1        0.1262
      3  C         23.6030   12.3260   23.4280 C.2     1  32L1        0.3197
      4  O         23.9360   11.4700   24.3050 O.2     1  32L1       -0.2500
      5  CB        23.9740    9.6530   19.5500 C.3     1  32L1        0.0243
      6  CG        23.7680    8.1780   19.2410 C.3     1  32L1        0.0018
      7  CD1       24.2370    7.8530   17.8320 C.3     1  32L1        0.0001
      8  CD2       24.4680    7.2820   20.2760 C.3     1  32L1        0.0001
      9  CH        23.4830   11.6370   21.1040 C.3     1  32L1        0.1828
     10  OH        23.0310   12.4140   20.1680 O.3     1  32L1       -0.2207
     11  CM        22.6430   11.8060   22.3740 C.3     1  32L1        0.1441
     12  OXT       23.2260   13.6020   23.6340 O.3     1  32L1       -0.4484
     13  C9        22.0950   13.8650   24.5630 C.3     1  32L1        0.2086
     14  C10       22.5400   14.7830   25.6900 C.3     1  32L1        0.0513
     15  N         19.7660    7.3430   21.0400 N.am    2  VAL2       -0.1963
     16  CA        19.8570    8.6710   21.7260 C.3     2  VAL2        0.1727
     17  C         21.3700    8.9950   21.8100 C.2     2  VAL2        0.2612
     18  O         21.9600    8.4640   22.7750 O.2     2  VAL2       -0.2715
     19  CB        19.1580    8.6670   23.0690 C.3     2  VAL2        0.0290
     20  CG1       19.0640   10.0530   23.7460 C.3     2  VAL2        0.0023
     21  CG2       17.7590    8.1090   22.9570 C.3     2  VAL2        0.0023
     22  N         17.8230    5.5970   18.4620 N.am    3  VAL3       -0.1978
     23  CA        18.9900    5.8600   19.2950 C.3     3  VAL3        0.1726
     24  C         18.9450    7.1940   20.0250 C.2     3  VAL3        0.2616
     25  O         18.1640    8.0550   19.5630 O.2     3  VAL3       -0.2715
     26  CB        20.2140    5.8900   18.3140 C.3     3  VAL3        0.0290
     27  CG1       20.5330    4.5160   17.7300 C.3     3  VAL3        0.0023
     28  CG2       20.0640    6.8310   17.1240 C.3     3  VAL3        0.0023
     29  CA        15.8690    4.3700   17.6520 C.3     4  IVA4        0.0868
     30  C         16.9720    4.6170   18.6700 C.2     4  IVA4        0.2418
     31  O         17.0350    3.8640   19.6860 O.2     4  IVA4       -0.2733
     32  CB        14.4350    4.4960   18.1710 C.3     4  IVA4        0.0091
     33  CG1       13.5390    3.3530   17.7400 C.3     4  IVA4        0.0005
     34  CG2       14.3680    4.7510   19.6640 C.3     4  IVA4        0.0005
@<TRIPOS>BOND
     1     1     2    1
     2     1    17   am
     3     2     5    1
     4     2     9    1
     5     3     4    2
     6     3    12    1
     7     3    11    1
     8     5     6    1
     9     6     7    1
    10     6     8    1
    11     9    10    1
    12     9    11    1
    13    12    13    1
    14    13    14    1
    15    15    16    1
    16    15    24   am
    17    16    17    1
    18    16    19    1
    19    17    18    2
    20    19    20    1
    21    19    21    1
    22    22    23    1
    23    22    30   am
    24    23    24    1
    25    23    26    1
    26    24    25    2
    27    26    27    1
    28    26    28    1
    29    29    30    1
    30    29    32    1
    31    30    31    2
    32    32    33    1
    33    32    34    1
