@<TRIPOS>MOLECULE
./3ptb/ligand.pdb
 9 9 0 0 0
SMALL
GASTEIGER

@<TRIPOS>ATOM
      1  C         -2.1930   13.6270   15.4960 C.2     1  BEN1        0.4766
      2  C1        -1.8530   14.3110   16.6580 C.ar    1  BEN1        0.0975
      3  N1        -2.7970   14.2350   14.4910 N.pl3   1  BEN1        0.2047
      4  C2        -2.1070   15.6530   16.7580 C.ar    1  BEN1        0.0080
      5  N2        -1.7620   12.3910   15.3090 N.pl3   1  BEN1        0.2047
      6  C3        -1.7740   16.3410   17.9320 C.ar    1  BEN1        0.0003
      7  C4        -1.1750   15.6620   19.0050 C.ar    1  BEN1        0.0000
      8  C5        -0.9140   14.2950   18.8850 C.ar    1  BEN1        0.0003
      9  C6        -1.2570   13.6340   17.7080 C.ar    1  BEN1        0.0080
@<TRIPOS>BOND
     1     1     3    1
     2     1     5    2
     3     1     2    1
     4     2     4   ar
     5     2     9   ar
     6     4     6   ar
     7     6     7   ar
     8     7     8   ar
     9     8     9   ar
