@<TRIPOS>MOLECULE
./1ex8/protein.pdb
 284 281 0 0 0
SMALL
GASTEIGER

@<TRIPOS>ATOM
      1 N           2.3460   17.2020   10.8020 N.3     1  ALA1       -0.1231
      2 CA          3.3120   18.2890   10.8220 C.3     1  ALA1        0.1694
      3 C           4.6140   17.7810   11.4350 C.2     1  ALA1        0.2592
      4 O           4.5760   17.2520   12.5490 O.2     1  ALA1       -0.2718
      5 CB          2.7540   19.4790   11.5830 C.3     1  ALA1        0.0304
      6 N           5.7140   17.9390   10.7060 N.am    2  ILE2       -0.1966
      7 CA          7.0230   17.5620   11.2070 C.3     2  ILE2        0.1727
      8 C           7.8570   18.8090   11.5350 C.2     2  ILE2        0.2617
      9 O           7.9460   19.7120   10.7110 O.2     2  ILE2       -0.2715
     10 CB          7.8590   16.7220   10.2330 C.3     2  ILE2        0.0290
     11 CG1         7.1110   15.5860    9.5350 C.3     2  ILE2        0.0022
     12 CG2         9.0870   16.1730   10.9560 C.3     2  ILE2        0.0023
     13 CD1         8.0630   14.5460    8.9670 C.3     2  ILE2        0.0001
     14 N           8.4360   18.7880   12.7240 N.am    3  GLY3       -0.1940
     15 CA          9.3150   19.8310   13.2200 C.3     3  GLY3        0.2014
     16 C          10.5290   19.2670   13.9330 C.2     3  GLY3        0.2639
     17 O          10.4660   18.1940   14.5360 O.2     3  GLY3       -0.2714
     18 N          11.6330   20.0010   13.8690 N.am    4  SER4       -0.1949
     19 CA         12.8770   19.6300   14.5240 C.3     4  SER4        0.1924
     20 C          13.8360   20.8090   14.5880 C.2     4  SER4        0.2314
     21 O          14.0330   21.4780   13.5640 O.2     4  SER4       -0.2863
     22 CB         13.5640   18.4870   13.7640 C.3     4  SER4        0.2116
     23 OG         14.8940   18.3230   14.2260 O.3     4  SER4       -0.2180
     24 N          12.1430   27.8190    9.7770 N.3     1  THR1       -0.1204
     25 CA         11.1750   28.7680   10.3380 C.3     1  THR1        0.1979
     26 C          11.6280   29.2520   11.7030 C.2     1  THR1        0.2460
     27 O          12.2200   28.4980   12.4840 O.2     1  THR1       -0.2732
     28 CB          9.7810   28.1200   10.4390 C.3     1  THR1        0.1783
     29 OG1         9.8670   26.9830   11.3160 O.3     1  THR1       -0.2211
     30 CG2         9.3230   27.5670    9.0990 C.3     1  THR1        0.0376
     31 N          11.3680   30.5160   12.0280 N.am    2  PRO2       -0.2718
     32 CA         11.8130   31.0310   13.3280 C.3     2  PRO2        0.1520
     33 C          11.0220   30.4070   14.4670 C.2     2  PRO2        0.2440
     34 O           9.8450   30.0890   14.3060 O.2     2  PRO2       -0.2731
     35 CB         11.5260   32.5320   13.2170 C.3     2  PRO2        0.0310
     36 CG         10.4200   32.6210   12.2250 C.3     2  PRO2        0.0237
     37 CD         10.6540   31.5150   11.2300 C.3     2  PRO2        0.0939
     38 N          11.6760   30.2350   15.6090 N.am    3  PRO3       -0.2716
     39 CA         11.0300   29.6750   16.7940 C.3     3  PRO3        0.1536
     40 C           9.7310   30.4290   17.0730 C.2     3  PRO3        0.2598
     41 O           9.6610   31.6420   16.8590 O.2     3  PRO3       -0.2715
     42 CB         12.0320   29.9370   17.9130 C.3     3  PRO3        0.0310
     43 CG         13.3470   30.0220   17.2220 C.3     3  PRO3        0.0237
     44 CD         13.0820   30.5950   15.8580 C.3     3  PRO3        0.0939
     45 N           8.7130   29.7060   17.5140 N.am    4  LEU4       -0.1964
     46 CA          7.4000   30.3260   17.7050 C.3     4  LEU4        0.1728
     47 C           7.3630   31.1070   19.0140 C.2     4  LEU4        0.2617
     48 O           6.7020   32.1440   19.1050 O.2     4  LEU4       -0.2715
     49 CB          6.3520   29.2190   17.6080 C.3     4  LEU4        0.0311
     50 CG          5.0350   29.4140   18.3470 C.3     4  LEU4        0.0022
     51 CD1         3.9960   29.9860   17.3960 C.3     4  LEU4        0.0001
     52 CD2         4.5710   28.1030   18.9690 C.3     4  LEU4        0.0001
     53 N           8.0800   30.6150   20.0160 N.am    5  GLY5       -0.1941
     54 CA          8.2320   31.1880   21.3290 C.3     5  GLY5        0.1998
     55 C           9.5960   31.7980   21.5810 C.2     5  GLY5        0.2480
     56 O          10.0430   32.7380   20.9140 O.2     5  GLY5       -0.2729
     57 N          10.3050   31.2770   22.5780 N.am    6  PRO6       -0.2726
     58 CA         11.6250   31.8320   22.9020 C.3     6  PRO6        0.1402
     59 C          12.5600   31.7970   21.6980 C.2     6  PRO6        0.2269
     60 O          12.5440   30.8750   20.8890 O.2     6  PRO6       -0.2865
     61 CB         12.1130   30.9290   24.0340 C.3     6  PRO6        0.0296
     62 CG         11.2100   29.7460   24.0770 C.3     6  PRO6        0.0237
     63 CD          9.9090   30.1670   23.4500 C.3     6  PRO6        0.0939
     64 N          17.2600   29.6530   20.5250 N.3     1  GLN1       -0.1245
     65 CA         17.3320   28.2900   20.0120 C.3     1  GLN1        0.1566
     66 C          17.3850   28.3260   18.4970 C.2     1  GLN1        0.2260
     67 O          17.0600   29.3290   17.8570 O.2     1  GLN1       -0.2867
     68 CB         16.1500   27.4690   20.5370 C.3     1  GLN1        0.0367
     69 CG         14.8630   27.6570   19.7580 C.3     1  GLN1        0.0905
     70 CD         13.6810   26.9050   20.3300 C.2     1  GLN1        0.2608
     71 OE1        13.5210   25.6910   20.1740 O.2     1  GLN1       -0.2717
     72 NE2        12.8230   27.6600   21.0060 N.am    1  GLN1       -0.0878
     73 N          13.6570   26.1980   13.1710 N.3     1  TYR1       -0.1227
     74 CA         13.0700   24.8870   12.9740 C.3     1  TYR1        0.1736
     75 C          13.0830   24.4850   11.5080 C.2     1  TYR1        0.2595
     76 O          12.8780   25.3350   10.6460 O.2     1  TYR1       -0.2718
     77 CB         11.6080   24.8730   13.4550 C.3     1  TYR1        0.0548
     78 CG         11.5000   24.7080   14.9540 C.ar    1  TYR1       -0.0200
     79 CD2        11.8920   25.7380   15.8000 C.ar    1  TYR1       -0.0009
     80 CD1        11.0230   23.5460   15.5220 C.ar    1  TYR1       -0.0009
     81 CE2        11.7960   25.5900   17.1740 C.ar    1  TYR1        0.0417
     82 CE1        10.9200   23.3880   16.8930 C.ar    1  TYR1        0.0417
     83 CZ         11.3130   24.4220   17.7160 C.ar    1  TYR1        0.1957
     84 OH         11.2210   24.2840   19.0790 O.3     1  TYR1       -0.2866
     85 N          13.2890   23.1920   11.2730 N.am    2  LEU2       -0.1966
     86 CA         12.9080   22.5990    9.9970 C.3     2  LEU2        0.1728
     87 C          11.4560   22.1390   10.1700 C.2     2  LEU2        0.2616
     88 O          11.1490   21.3970   11.1080 O.2     2  LEU2       -0.2715
     89 CB         13.7650   21.4250    9.5580 C.3     2  LEU2        0.0311
     90 CG         13.8100   21.1150    8.0690 C.3     2  LEU2        0.0022
     91 CD2        15.0150   20.2370    7.7400 C.3     2  LEU2        0.0001
     92 CD1        12.5420   20.4240    7.5750 C.3     2  LEU2        0.0001
     93 N          10.6140   22.6160    9.2720 N.am    3  ASN3       -0.1958
     94 CA          9.2010   22.2780    9.3410 C.3     3  ASN3        0.1819
     95 C           8.7890   21.6360    8.0290 C.2     3  ASN3        0.2621
     96 O           9.3030   22.0380    6.9860 O.2     3  ASN3       -0.2715
     97 CB          8.3670   23.5210    9.6280 C.3     3  ASN3        0.1195
     98 CG          8.1100   23.7480   11.1030 C.2     3  ASN3        0.2630
     99 OD1         8.6470   24.6750   11.7150 O.2     3  ASN3       -0.2716
    100 ND2         7.2750   22.9020   11.6890 N.am    3  ASN3       -0.0877
    101 N           7.8880   20.6630    8.0940 N.am    4  ALA4       -0.1977
    102 CA          7.3290   20.0660    6.8890 C.3     4  ALA4        0.1597
    103 C           5.9100   19.5680    7.1700 C.2     4  ALA4        0.2287
    104 O           5.5300   19.4570    8.3400 O.2     4  ALA4       -0.2864
    105 CB          8.1860   18.9170    6.3840 C.3     4  ALA4        0.0319
    106 N           8.9290    9.5230   17.7020 N.3     1  GLU1       -0.1245
    107 CA          9.4950   10.6210   18.4800 C.3     1  GLU1        0.1565
    108 C          10.4830   10.1180   19.5320 C.2     1  GLU1        0.2260
    109 O          11.6440   10.5360   19.5250 O.2     1  GLU1       -0.2867
    110 CB          8.3890   11.4280   19.1580 C.3     1  GLU1        0.0329
    111 CG          7.5890   12.2850   18.1680 C.3     1  GLU1        0.0437
    112 CD          6.5610   13.1050   18.9350 C.2     1  GLU1        0.0504
    113 OE2         6.2910   12.7230   20.0920 O.co2   1  GLU1       -0.5492
    114 OE1         6.0500   14.1020   18.3940 O.co2   1  GLU1       -0.5492
    115 N          13.4170   12.5420   21.3780 N.3     1  ARG1       -0.1245
    116 CA         12.6520   13.7220   21.7830 C.3     1  ARG1        0.1563
    117 C          12.3250   13.6800   23.2720 C.2     1  ARG1        0.2260
    118 O          11.7910   12.6950   23.7720 O.2     1  ARG1       -0.2867
    119 CB         11.3470   13.8450   20.9970 C.3     1  ARG1        0.0307
    120 CG         10.3420   14.7980   21.6400 C.3     1  ARG1        0.0489
    121 CD          8.9760   14.6190   21.0130 C.3     1  ARG1        0.2205
    122 NE          8.2580   15.8740   20.7950 N.pl3   1  ARG1       -0.0865
    123 CZ          7.3030   16.2800   21.6270 C.cat   1  ARG1        0.5346
    124 NH2         6.9980   15.5290   22.6770 N.pl3   1  ARG1        0.1354
    125 NH1         6.6580   17.4150   21.4170 N.pl3   1  ARG1        0.1354
    126 N          10.6170   14.9140   26.9130 N.3     1  ARG1       -0.1245
    127 CA          9.5330   15.5850   27.6480 C.3     1  ARG1        0.1563
    128 C          10.1090   16.6820   28.4990 C.2     1  ARG1        0.2260
    129 O          10.8340   16.4170   29.4700 O.2     1  ARG1       -0.2867
    130 CB          8.6960   14.6250   28.4930 C.3     1  ARG1        0.0307
    131 CG          7.1740   14.7470   28.3240 C.3     1  ARG1        0.0489
    132 CD          6.6670   16.1750   28.4970 C.3     1  ARG1        0.2205
    133 NE          5.2000   16.1670   28.5230 N.pl3   1  ARG1       -0.0865
    134 CZ          4.3910   17.0080   27.8390 C.cat   1  ARG1        0.5346
    135 NH1         4.9610   17.9850   27.1460 N.pl3   1  ARG1        0.1354
    136 NH2         3.0490   16.8920   27.8910 N.pl3   1  ARG1        0.1354
    137 N           8.2770   23.3200   30.4740 N.3     1  GLU1       -0.1231
    138 CA          7.8340   24.4840   29.7260 C.3     1  GLU1        0.1697
    139 C           7.7280   24.1670   28.2340 C.2     1  GLU1        0.2592
    140 O           8.5850   23.4920   27.6630 O.2     1  GLU1       -0.2718
    141 CB          8.7700   25.6900   29.8900 C.3     1  GLU1        0.0343
    142 CG          9.4270   26.1170   28.5850 C.3     1  GLU1        0.0437
    143 CD          9.6570   27.5990   28.3960 C.2     1  GLU1        0.0504
    144 OE2         9.2840   28.4100   29.2710 O.co2   1  GLU1       -0.5492
    145 OE1        10.2280   27.9910   27.3470 O.co2   1  GLU1       -0.5492
    146 N           6.6620   24.6690   27.6200 N.am    2  ARG2       -0.1966
    147 CA          6.4660   24.4870   26.1930 C.3     2  ARG2        0.1729
    148 C           7.4110   25.4120   25.3930 C.2     2  ARG2        0.2616
    149 O           8.0770   26.2600   26.0100 O.2     2  ARG2       -0.2715
    150 CB          5.0380   24.8070   25.7590 C.3     2  ARG2        0.0348
    151 CG          3.9550   23.7890   26.0630 C.3     2  ARG2        0.0492
    152 CD          2.6420   24.4850   26.3870 C.3     2  ARG2        0.2205
    153 NE          1.5510   23.5470   26.6230 N.pl3   2  ARG2       -0.0865
    154 CZ          0.8630   23.4680   27.7560 C.cat   2  ARG2        0.5346
    155 NH2         1.1360   24.2660   28.7810 N.pl3   2  ARG2        0.1354
    156 NH1        -0.1170   22.5810   27.8750 N.pl3   2  ARG2        0.1354
    157 N           7.4300   25.0840   24.1150 N.am    3  TRP3       -0.1960
    158 CA          8.1140   25.7880   23.0120 C.3     3  TRP3        0.1768
    159 C           9.6510   25.8480   23.1280 C.2     3  TRP3        0.2620
    160 O          10.2380   26.5750   22.3220 O.2     3  TRP3       -0.2715
    161 CB          7.5320   27.1950   22.8350 C.3     3  TRP3        0.0553
    162 CG          6.0530   27.1500   22.5750 C.2     3  TRP3       -0.0136
    163 CD1         5.3050   26.0480   22.2710 C.2     3  TRP3        0.0907
    164 CD2         5.1410   28.2560   22.6020 C.3     3  TRP3        0.0819
    165 NE1         3.9860   26.3860   22.1040 N.2     3  TRP3       -0.2482
    166 CE2         3.8610   27.7450   22.3020 C.2     3  TRP3        0.0665
    167 CE3         5.2830   29.6270   22.8510 C.2     3  TRP3       -0.0164
    168 CZ2         2.7320   28.5650   22.2430 C.2     3  TRP3        0.0153
    169 CZ3         4.1630   30.4370   22.7900 C.2     3  TRP3       -0.0038
    170 CH2         2.9020   29.9050   22.4880 C.2     3  TRP3        0.0009
    171 N          10.2680   25.1140   24.0450 N.am    4  GLY4       -0.1940
    172 CA         11.7230   24.9630   24.0530 C.3     4  GLY4        0.1998
    173 C          12.1260   24.0260   22.9230 C.2     4  GLY4        0.2481
    174 O          11.2270   23.4530   22.2960 O.2     4  GLY4       -0.2729
    175 N          13.3950   23.8130   22.6170 N.am    5  PRO5       -0.2715
    176 CA         13.7670   23.0740   21.3980 C.3     5  PRO5        0.1536
    177 C          13.6660   21.5640   21.5560 C.2     5  PRO5        0.2598
    178 O          13.5800   21.0570   22.6720 O.2     5  PRO5       -0.2715
    179 CB         15.2430   23.4740   21.2120 C.3     5  PRO5        0.0310
    180 CG         15.7260   23.6050   22.6230 C.3     5  PRO5        0.0237
    181 CD         14.5840   24.2280   23.3840 C.3     5  PRO5        0.0939
    182 N          13.6730   20.8060   20.4570 N.am    6  ARG6       -0.1978
    183 CA         13.4890   19.3540   20.6380 C.3     6  ARG6        0.1597
    184 C          13.8960   18.5960   19.3950 C.2     6  ARG6        0.2287
    185 O          13.8570   19.1200   18.2770 O.2     6  ARG6       -0.2864
    186 CB         12.0360   19.1320   21.0590 C.3     6  ARG6        0.0334
    187 CG         11.0150   19.0520   19.9560 C.3     6  ARG6        0.0492
    188 CD         10.5260   20.4020   19.4790 C.3     6  ARG6        0.2205
    189 NE         10.0280   21.2680   20.5310 N.pl3   6  ARG6       -0.0865
    190 CZ          8.8390   21.3180   21.1050 C.cat   6  ARG6        0.5346
    191 NH1         7.8640   20.4880   20.7480 N.pl3   6  ARG6        0.1354
    192 NH2         8.6150   22.2190   22.0630 N.pl3   6  ARG6        0.1354
    193 N           9.1830   16.4250   16.5450 N.3     1  ASP1       -0.1227
    194 CA          7.7760   16.6420   16.8000 C.3     1  ASP1        0.1748
    195 C           6.9950   15.9870   15.6710 C.2     1  ASP1        0.2596
    196 O           7.1850   16.3300   14.5060 O.2     1  ASP1       -0.2718
    197 CB          7.4240   18.1190   16.8600 C.3     1  ASP1        0.0701
    198 CG          7.5540   18.7430   18.2310 C.2     1  ASP1        0.0523
    199 OD2         7.7020   18.0100   19.2290 O.co2   1  ASP1       -0.5491
    200 OD1         7.5010   19.9930   18.3060 O.co2   1  ASP1       -0.5491
    201 N           6.1340   15.0420   16.0260 N.am    2  LEU2       -0.1966
    202 CA          5.1780   14.6020   15.0080 C.3     2  LEU2        0.1728
    203 C           3.8050   14.9390   15.5800 C.2     2  LEU2        0.2616
    204 O           3.4210   14.3760   16.5980 O.2     2  LEU2       -0.2715
    205 CB          5.3470   13.1300   14.6450 C.3     2  LEU2        0.0311
    206 CG          6.7280   12.8060   14.0530 C.3     2  LEU2        0.0022
    207 CD2         6.9450   11.2970   14.0020 C.3     2  LEU2        0.0001
    208 CD1         6.8720   13.4180   12.6730 C.3     2  LEU2        0.0001
    209 N           3.1380   15.8790   14.9230 N.am    3  ASP3       -0.1973
    210 CA          1.8650   16.4250   15.3670 C.3     3  ASP3        0.1651
    211 C           0.7860   16.1520   14.3300 C.2     3  ASP3        0.2291
    212 O           0.9350   16.4400   13.1440 O.2     3  ASP3       -0.2864
    213 CB          1.9820   17.9310   15.6200 C.3     3  ASP3        0.0714
    214 CG          2.5890   18.2680   16.9640 C.2     3  ASP3        0.0525
    215 OD2         2.2170   17.6570   17.9910 O.co2   3  ASP3       -0.5491
    216 OD1         3.4670   19.1620   16.9800 O.co2   3  ASP3       -0.5491
    217 N          -2.0550   17.3750   12.6060 N.3     1  MET1       -0.1245
    218 CA         -2.7620   18.6260   12.3880 C.3     1  MET1        0.1570
    219 C          -4.2520   18.3540   12.1740 C.2     1  MET1        0.2261
    220 O          -5.1010   18.9540   12.8350 O.2     1  MET1       -0.2867
    221 CB         -2.1880   19.3730   11.1900 C.3     1  MET1        0.0387
    222 CG         -0.7640   19.8750   11.3760 C.3     1  MET1        0.0595
    223 SD         -0.2380   20.9520   10.0300 S.3     1  MET1       -0.1393
    224 CE          0.0360   19.7810    8.7030 C.3     1  MET1        0.0692
    225 N          -5.3260   20.3610   15.3000 N.3     1  HIS1       -0.1226
    226 CA         -4.3330   20.6870   16.3140 C.3     1  HIS1        0.1752
    227 C          -4.6180   22.0800   16.8720 C.2     1  HIS1        0.2596
    228 O          -4.9400   22.9970   16.1230 O.2     1  HIS1       -0.2718
    229 CB         -2.9170   20.5760   15.7510 C.3     1  HIS1        0.0759
    230 CG         -1.8150   20.6660   16.7560 C.ar    1  HIS1        0.0818
    231 ND1        -1.5870   21.7700   17.5440 N.ar    1  HIS1       -0.2268
    232 CD2        -0.8570   19.7770   17.1080 C.ar    1  HIS1        0.1154
    233 CE1        -0.5470   21.5670   18.3350 C.ar    1  HIS1        0.1986
    234 NE2        -0.0850   20.3600   18.0850 N.ar    1  HIS1       -0.2212
    235 N          -4.5250   22.1740   18.1860 N.am    2  TYR2       -0.1962
    236 CA         -4.7500   23.4110   18.9120 C.3     2  TYR2        0.1771
    237 C          -3.9910   24.5480   18.2510 C.2     2  TYR2        0.2619
    238 O          -2.8000   24.3940   17.9660 O.2     2  TYR2       -0.2715
    239 CB         -4.3080   23.2130   20.3580 C.3     2  TYR2        0.0574
    240 CG         -4.2740   24.4610   21.1990 C.ar    2  TYR2       -0.0198
    241 CD1        -5.4550   25.1140   21.5340 C.ar    2  TYR2       -0.0009
    242 CD2        -3.0680   24.9800   21.6550 C.ar    2  TYR2       -0.0009
    243 CE1        -5.4430   26.2590   22.3050 C.ar    2  TYR2        0.0417
    244 CE2        -3.0460   26.1280   22.4260 C.ar    2  TYR2        0.0417
    245 CZ         -4.2320   26.7560   22.7430 C.ar    2  TYR2        0.1957
    246 OH         -4.2160   27.8970   23.5080 O.3     2  TYR2       -0.2866
    247 N          -4.6780   25.6600   18.0160 N.am    3  ASP3       -0.1973
    248 CA         -4.0420   26.8970   17.5800 C.3     3  ASP3        0.1651
    249 C          -3.3320   26.8040   16.2430 C.2     3  ASP3        0.2291
    250 O          -2.5490   27.6910   15.8870 O.2     3  ASP3       -0.2864
    251 CB         -3.0290   27.3410   18.6530 C.3     3  ASP3        0.0714
    252 CG         -2.5870   28.7800   18.4610 C.2     3  ASP3        0.0525
    253 OD1        -3.4590   29.6010   18.1100 O.co2   3  ASP3       -0.5491
    254 OD2        -1.3970   29.0950   18.6420 O.co2   3  ASP3       -0.5491
    255 N          -0.6850   29.5310   12.8800 N.3     1  ARG1       -0.1245
    256 CA          0.7140   29.1170   12.7690 C.3     1  ARG1        0.1563
    257 C           1.1730   28.8400   11.3560 C.2     1  ARG1        0.2260
    258 O           0.8930   27.8230   10.7250 O.2     1  ARG1       -0.2867
    259 CB          0.9280   27.8840   13.6630 C.3     1  ARG1        0.0307
    260 CG          0.5820   28.1960   15.1060 C.3     1  ARG1        0.0489
    261 CD          0.9420   27.0470   16.0410 C.3     1  ARG1        0.2205
    262 NE          0.5260   27.3690   17.4020 N.pl3   1  ARG1       -0.0865
    263 CZ          0.8400   26.7190   18.5080 C.cat   1  ARG1        0.5346
    264 NH1         1.6140   25.6370   18.4960 N.pl3   1  ARG1        0.1354
    265 NH2         0.3540   27.1830   19.6550 N.pl3   1  ARG1        0.1354
    266 N           3.9420   28.0180   10.1940 N.3     1  PHE1       -0.1227
    267 CA          4.8720   26.9120    9.9330 C.3     1  PHE1        0.1736
    268 C           4.0480   25.6410    9.7710 C.2     1  PHE1        0.2595
    269 O           4.4820   24.6530    9.1890 O.2     1  PHE1       -0.2718
    270 CB          5.9240   26.7930   11.0140 C.3     1  PHE1        0.0547
    271 CG          5.4280   26.6030   12.4320 C.ar    1  PHE1       -0.0202
    272 CD1         5.0420   25.3540   12.8980 C.ar    1  PHE1       -0.0042
    273 CD2         5.3430   27.6920   13.2890 C.ar    1  PHE1       -0.0042
    274 CE1         4.5750   25.1970   14.1840 C.ar    1  PHE1       -0.0003
    275 CE2         4.9020   27.5350   14.5860 C.ar    1  PHE1       -0.0003
    276 CZ          4.5330   26.2820   15.0410 C.ar    1  PHE1       -0.0000
    277 N           2.8240   25.7020   10.2970 N.am    2  MET2       -0.1979
    278 CA          1.9320   24.5640   10.0710 C.3     2  MET2        0.1605
    279 C           1.1240   24.7900    8.8000 C.2     2  MET2        0.2287
    280 O           0.9950   23.8720    7.9850 O.2     2  MET2       -0.2864
    281 CB          1.0390   24.3600   11.2790 C.3     2  MET2        0.0413
    282 CG          1.6390   23.5450   12.4120 C.3     2  MET2        0.0598
    283 SD          0.3600   23.1130   13.6170 S.3     2  MET2       -0.1393
    284 CE          1.0210   23.8880   15.0920 C.3     2  MET2        0.0692
@<TRIPOS>UNITY_ATOM_ATTR
113 1
charge -1
144 1
charge -1
199 1
charge -1
215 1
charge -1
253 1
charge -1
@<TRIPOS>BOND
     1     1     2    1
     2     2     3    1
     3     2     5    1
     4     3     6   am
     5     3     4    2
     6     6     7    1
     7     7    10    1
     8     7     8    1
     9     8     9    2
    10     8    14   am
    11    10    11    1
    12    10    12    1
    13    11    13    1
    14    14    15    1
    15    15    16    1
    16    16    18   am
    17    16    17    2
    18    18    19    1
    19    19    22    1
    20    19    20    1
    21    20    21    2
    22    22    23    1
    23    24    25    1
    24    25    28    1
    25    25    26    1
    26    26    31   am
    27    26    27    2
    28    28    30    1
    29    28    29    1
    30    31    37    1
    31    31    32    1
    32    32    35    1
    33    32    33    1
    34    33    34    2
    35    33    38   am
    36    35    36    1
    37    36    37    1
    38    38    44    1
    39    38    39    1
    40    39    40    1
    41    39    42    1
    42    40    41    2
    43    40    45   am
    44    42    43    1
    45    43    44    1
    46    45    46    1
    47    46    49    1
    48    46    47    1
    49    47    48    2
    50    47    53   am
    51    49    50    1
    52    50    51    1
    53    50    52    1
    54    53    54    1
    55    54    55    1
    56    55    56    2
    57    55    57   am
    58    57    58    1
    59    57    63    1
    60    58    59    1
    61    58    61    1
    62    59    60    2
    63    61    62    1
    64    62    63    1
    65    64    65    1
    66    65    66    1
    67    65    68    1
    68    66    67    2
    69    68    69    1
    70    69    70    1
    71    70    71    2
    72    70    72   am
    73    73    74    1
    74    74    75    1
    75    74    77    1
    76    75    76    2
    77    75    85   am
    78    77    78    1
    79    78    80   ar
    80    78    79   ar
    81    79    81   ar
    82    80    82   ar
    83    81    83   ar
    84    82    83   ar
    85    83    84    1
    86    85    86    1
    87    86    89    1
    88    86    87    1
    89    87    93   am
    90    87    88    2
    91    89    90    1
    92    90    92    1
    93    90    91    1
    94    93    94    1
    95    94    95    1
    96    94    97    1
    97    95    96    2
    98    95   101   am
    99    97    98    1
   100    98   100   am
   101    98    99    2
   102   101   102    1
   103   102   105    1
   104   102   103    1
   105   103   104    2
   106   106   107    1
   107   107   110    1
   108   107   108    1
   109   108   109    2
   110   110   111    1
   111   111   112    1
   112   112   114   ar
   113   112   113   ar
   114   115   116    1
   115   116   119    1
   116   116   117    1
   117   117   118    2
   118   119   120    1
   119   120   121    1
   120   121   122    1
   121   122   123    2
   122   123   125    1
   123   123   124    1
   124   126   127    1
   125   127   130    1
   126   127   128    1
   127   128   129    2
   128   130   131    1
   129   131   132    1
   130   132   133    1
   131   133   134    2
   132   134   135    1
   133   134   136    1
   134   137   138    1
   135   138   139    1
   136   138   141    1
   137   139   146   am
   138   139   140    2
   139   141   142    1
   140   142   143    1
   141   143   145   ar
   142   143   144   ar
   143   146   147    1
   144   147   148    1
   145   147   150    1
   146   148   157   am
   147   148   149    2
   148   150   151    1
   149   151   152    1
   150   152   153    1
   151   153   154    2
   152   154   156    1
   153   154   155    1
   154   157   158    1
   155   158   161    1
   156   158   159    1
   157   159   160    2
   158   159   171   am
   159   161   162    1
   160   162   163    2
   161   162   164    1
   162   163   165    1
   163   164   166    1
   164   164   167    1
   165   165   166    2
   166   166   168    1
   167   167   169    2
   168   168   170    2
   169   169   170    1
   170   171   172    1
   171   172   173    1
   172   173   174    2
   173   173   175   am
   174   175   176    1
   175   175   181    1
   176   176   179    1
   177   176   177    1
   178   177   182   am
   179   177   178    2
   180   179   180    1
   181   180   181    1
   182   182   183    1
   183   183   184    1
   184   183   186    1
   185   184   185    2
   186   186   187    1
   187   187   188    1
   188   188   189    1
   189   189   190    2
   190   190   191    1
   191   190   192    1
   192   193   194    1
   193   194   195    1
   194   194   197    1
   195   195   196    2
   196   195   201   am
   197   197   198    1
   198   198   200   ar
   199   198   199   ar
   200   201   202    1
   201   202   205    1
   202   202   203    1
   203   203   209   am
   204   203   204    2
   205   205   206    1
   206   206   208    1
   207   206   207    1
   208   209   210    1
   209   210   211    1
   210   210   213    1
   211   211   212    2
   212   213   214    1
   213   214   216   ar
   214   214   215   ar
   215   217   218    1
   216   218   221    1
   217   218   219    1
   218   219   220    2
   219   221   222    1
   220   222   223    1
   221   223   224    1
   222   225   226    1
   223   226   229    1
   224   226   227    1
   225   227   228    2
   226   227   235   am
   227   229   230    1
   228   230   232   ar
   229   230   231   ar
   230   231   233   ar
   231   232   234   ar
   232   233   234   ar
   233   235   236    1
   234   236   237    1
   235   236   239    1
   236   237   238    2
   237   237   247   am
   238   239   240    1
   239   240   241   ar
   240   240   242   ar
   241   241   243   ar
   242   242   244   ar
   243   243   245   ar
   244   244   245   ar
   245   245   246    1
   246   247   248    1
   247   248   249    1
   248   248   251    1
   249   249   250    2
   250   251   252    1
   251   252   253   ar
   252   252   254   ar
   253   255   256    1
   254   256   257    1
   255   256   259    1
   256   257   258    2
   257   259   260    1
   258   260   261    1
   259   261   262    1
   260   262   263    2
   261   263   264    1
   262   263   265    1
   263   266   267    1
   264   267   268    1
   265   267   270    1
   266   268   269    2
   267   268   277   am
   268   270   271    1
   269   271   272   ar
   270   271   273   ar
   271   272   274   ar
   272   273   275   ar
   273   274   276   ar
   274   275   276   ar
   275   277   278    1
   276   278   279    1
   277   278   281    1
   278   279   280    2
   279   281   282    1
   280   282   283    1
   281   283   284    1
