@<TRIPOS>MOLECULE
./2roy/protein.pdb
 147 143 0 0 0
SMALL
GASTEIGER

@<TRIPOS>ATOM
      1 N          20.6820   36.5750   -7.8820 N.3     1  GLU1       -0.1231
      2 CA         19.6940   37.5420   -7.3800 C.3     1  GLU1        0.1697
      3 C          18.3220   36.8690   -7.3750 C.2     1  GLU1        0.2592
      4 O          18.1600   35.9690   -8.2300 O.2     1  GLU1       -0.2718
      5 CB         19.5140   38.7690   -8.2700 C.3     1  GLU1        0.0343
      6 CG         18.4460   38.7160   -9.3770 C.3     1  GLU1        0.0437
      7 CD         18.4260   39.9520  -10.2350 C.2     1  GLU1        0.0504
      8 OE2        18.1660   41.0700   -9.8020 O.co2   1  GLU1       -0.5492
      9 OE1        18.7130   39.7410  -11.4400 O.co2   1  GLU1       -0.5492
     10 N          17.4190   37.3230   -6.5140 N.am    2  SER2       -0.1952
     11 CA         16.1050   36.6660   -6.4670 C.3     2  SER2        0.1924
     12 CB         15.6050   36.1470   -7.8210 C.2     2  SER2        0.2314
     13 OG         15.4690   36.7950   -8.8630 O.2     2  SER2       -0.2863
     14 C          14.9970   37.4060   -5.7320 C.3     2  SER2        0.2116
     15 O          14.0560   36.3440   -5.4280 O.3     2  SER2       -0.2180
     16 N          15.7180   32.3390   -7.2840 N.3     1  CYS1       -0.1221
     17 CA         15.8470   31.0700   -6.5620 C.3     1  CYS1        0.1794
     18 C          15.0100   31.4610   -5.3130 C.2     1  CYS1        0.2443
     19 O          14.8050   32.6590   -5.1700 O.2     1  CYS1       -0.2733
     20 CB         17.2670   30.6570   -6.1570 C.3     1  CYS1        0.0970
     21 SG         18.6170   31.6750   -6.8720 S.3     1  CYS1       -0.0800
     22 N          14.7560   30.4060   -4.5800 N.am    2  PRO2       -0.2729
     23 CA         13.9440   30.4740   -3.3850 C.3     2  PRO2        0.1401
     24 C          14.5700   30.5380   -2.0200 C.2     2  PRO2        0.2269
     25 O          13.8020   30.7770   -1.0920 O.2     2  PRO2       -0.2865
     26 CB         13.2010   29.1140   -3.4430 C.3     2  PRO2        0.0296
     27 CG         13.7100   28.4000   -4.6660 C.3     2  PRO2        0.0237
     28 CD         15.0730   29.0100   -4.8960 C.3     2  PRO2        0.0939
     29 N          18.1320   32.0240   -0.4530 N.3     1  MET1       -0.1230
     30 CA         19.4390   32.7360   -0.6740 C.3     1  MET1        0.1702
     31 C          19.9890   33.1130    0.6710 C.2     1  MET1        0.2592
     32 O          19.2740   33.4350    1.5700 O.2     1  MET1       -0.2718
     33 CB         19.1300   33.7250   -1.7390 C.3     1  MET1        0.0401
     34 CG         19.1180   35.1240   -1.1950 C.3     1  MET1        0.0596
     35 SD         19.2820   36.0000   -2.8040 S.3     1  MET1       -0.1393
     36 CE         17.9410   35.1080   -3.6670 C.3     1  MET1        0.0692
     37 N          21.2820   33.0070    0.9550 N.am    2  VAL2       -0.1966
     38 CA         21.9240   33.2880    2.2340 C.3     2  VAL2        0.1727
     39 C          22.9680   34.3720    2.0400 C.2     2  VAL2        0.2616
     40 O          23.7530   34.3370    1.0810 O.2     2  VAL2       -0.2715
     41 CB         22.5660   32.0430    2.8750 C.3     2  VAL2        0.0290
     42 CG2        23.1060   32.3390    4.2800 C.3     2  VAL2        0.0023
     43 CG1        21.4830   31.0020    2.9340 C.3     2  VAL2        0.0023
     44 N          22.9810   35.3160    2.9280 N.am    3  LYS3       -0.1974
     45 CA         23.8910   36.5040    2.8970 C.3     3  LYS3        0.1639
     46 C          24.5410   36.6460    4.2550 C.2     3  LYS3        0.2290
     47 O          23.7530   36.6450    5.1680 O.2     3  LYS3       -0.2864
     48 CB         23.0250   37.6700    2.4600 C.3     3  LYS3        0.0554
     49 CG         23.5740   39.0900    2.3620 C.2     3  LYS3       -0.0270
     50 CD         24.8480   39.3000    1.5780 C.2     3  LYS3       -0.0102
     51 CE         25.3820   40.7070    1.4900 C.3     3  LYS3        0.1350
     52 NZ         26.6250   40.6970    0.6370 N.3     3  LYS3       -0.1262
     53 N          27.3100   35.9400   -0.3870 N.3     1  GLU1       -0.1245
     54 CA         26.0340   35.3260   -0.7670 C.3     1  GLU1        0.1565
     55 C          26.1890   33.8880   -1.2830 C.2     1  GLU1        0.2260
     56 O          27.2330   33.5790   -1.8210 O.2     1  GLU1       -0.2867
     57 CB         25.4190   36.0980   -1.9410 C.3     1  GLU1        0.0329
     58 CG         25.1220   37.5510   -1.6940 C.3     1  GLU1        0.0437
     59 CD         24.6720   38.2950   -2.9260 C.2     1  GLU1        0.0504
     60 OE1        24.7210   37.8060   -4.0470 O.co2   1  GLU1       -0.5492
     61 OE2        24.2590   39.4380   -2.6520 O.co2   1  GLU1       -0.5492
     62 N          23.5000   31.3950   -3.4180 N.3     1  HIS1       -0.1241
     63 CA         22.4090   31.2240   -4.3560 C.3     1  HIS1        0.1621
     64 C          22.5500   29.8560   -5.0660 C.2     1  HIS1        0.2264
     65 O          23.5940   29.1760   -5.1440 O.2     1  HIS1       -0.2867
     66 CB         22.3810   32.1580   -5.6330 C.3     1  HIS1        0.0745
     67 CG         22.9930   33.4880   -5.4000 C.ar    1  HIS1        0.0817
     68 ND1        22.4480   34.3970   -4.5160 N.ar    1  HIS1       -0.2268
     69 CD2        24.1400   34.0330   -5.8440 C.ar    1  HIS1        0.1154
     70 CE1        23.2190   35.4720   -4.4240 C.ar    1  HIS1        0.1986
     71 NE2        24.2350   35.2740   -5.2320 N.ar    1  HIS1       -0.2212
     72 N           9.8890   33.2680   -1.3300 N.3     1  ARG1       -0.1231
     73 CA         11.3420   33.4790   -1.5550 C.3     1  ARG1        0.1694
     74 C          11.8370   33.8570   -0.1620 C.2     1  ARG1        0.2592
     75 O          11.1210   34.5940    0.4570 O.2     1  ARG1       -0.2718
     76 CB         11.6030   34.4160   -2.6870 C.3     1  ARG1        0.0321
     77 CG         11.2000   33.7010   -3.9590 C.3     1  ARG1        0.0489
     78 CD         11.6710   34.4530   -5.1490 C.3     1  ARG1        0.2205
     79 NE         11.4030   35.8870   -4.8810 N.pl3   1  ARG1       -0.0865
     80 CZ         10.9590   36.5550   -5.9680 C.cat   1  ARG1        0.5346
     81 NH1        10.6290   35.8340   -7.0470 N.pl3   1  ARG1        0.1354
     82 NH2        10.9080   37.8780   -6.0170 N.pl3   1  ARG1        0.1354
     83 N          12.9110   33.2880    0.2480 N.am    2  TYR2       -0.1962
     84 CA         13.5710   33.3760    1.5160 C.3     2  TYR2        0.1771
     85 C          14.9910   33.8670    1.4080 C.2     2  TYR2        0.2620
     86 O          15.7970   33.3620    0.6350 O.2     2  TYR2       -0.2715
     87 CB         13.5480   31.9300    2.1360 C.3     2  TYR2        0.0574
     88 CG         12.1570   31.5820    2.6100 C.ar    2  TYR2       -0.0198
     89 CD1        11.2730   30.9850    1.7230 C.ar    2  TYR2       -0.0009
     90 CD2        11.6740   31.7760    3.8600 C.ar    2  TYR2       -0.0009
     91 CE1         9.9440   30.6420    2.0370 C.ar    2  TYR2        0.0417
     92 CE2        10.3660   31.4330    4.2800 C.ar    2  TYR2        0.0417
     93 CZ          9.5390   30.8570    3.3540 C.ar    2  TYR2        0.1957
     94 OH          8.2510   30.4870    3.6840 O.3     2  TYR2       -0.2866
     95 N          15.3400   34.8840    2.1710 N.am    3  THR3       -0.1937
     96 CA         16.6990   35.4080    2.2430 C.3     3  THR3        0.2028
     97 C          17.0960   35.3290    3.7040 C.2     3  THR3        0.2642
     98 O          16.4090   36.1190    4.3650 O.2     3  THR3       -0.2714
     99 CB         16.8140   36.8930    1.7450 C.3     3  THR3        0.1808
    100 OG1        16.4140   36.9000    0.3300 O.3     3  THR3       -0.2208
    101 CG2        18.1910   37.4890    1.9750 C.3     3  THR3        0.0379
    102 N          18.0350   34.5270    4.0860 N.am    4  ILE4       -0.1963
    103 CA         18.5050   34.4600    5.4860 C.3     4  ILE4        0.1727
    104 C          19.8210   35.2510    5.5500 C.2     4  ILE4        0.2616
    105 O          20.7560   34.7190    4.9340 O.2     4  ILE4       -0.2715
    106 CB         18.9830   33.0170    5.8670 C.3     4  ILE4        0.0290
    107 CG1        17.8780   31.9860    5.8570 C.3     4  ILE4        0.0022
    108 CG2        19.7970   32.9900    7.2070 C.3     4  ILE4        0.0023
    109 CD1        16.4270   32.5040    5.9800 C.3     4  ILE4        0.0001
    110 N          19.9640   36.3820    6.1700 N.am    5  ALA5       -0.1977
    111 CA         21.1680   37.1640    6.3540 C.3     5  ALA5        0.1597
    112 C          21.6690   36.8890    7.7740 C.2     5  ALA5        0.2287
    113 O          20.8170   36.7750    8.6370 O.2     5  ALA5       -0.2864
    114 CB         20.9060   38.6570    6.4120 C.3     5  ALA5        0.0319
    115 N          18.4900   37.8320   10.3260 N.3     1  THR1       -0.1203
    116 CA         17.1300   38.2350    9.9860 C.3     1  THR1        0.1994
    117 C          16.6150   37.5150    8.7670 C.2     1  THR1        0.2618
    118 O          17.3930   36.8880    8.0590 O.2     1  THR1       -0.2717
    119 CB         17.1090   39.8030    9.7990 C.3     1  THR1        0.1784
    120 OG1        15.6750   40.1450    9.7650 O.3     1  THR1       -0.2211
    121 CG2        17.8380   40.2810    8.5600 C.3     1  THR1        0.0376
    122 N          15.3380   37.5720    8.4990 N.am    2  ALA2       -0.1965
    123 CA         14.8350   36.8790    7.2920 C.3     2  ALA2        0.1728
    124 C          14.0030   37.8490    6.4710 C.2     2  ALA2        0.2616
    125 O          13.2780   38.5240    7.1580 O.2     2  ALA2       -0.2715
    126 CB         13.9160   35.7160    7.6340 C.3     2  ALA2        0.0334
    127 N          14.1070   37.8180    5.1800 N.am    3  VAL3       -0.1963
    128 CA         13.3250   38.6370    4.2540 C.3     3  VAL3        0.1727
    129 C          12.5220   37.5770    3.5000 C.2     3  VAL3        0.2616
    130 O          13.2210   36.6450    3.1010 O.2     3  VAL3       -0.2715
    131 CB         14.1430   39.5310    3.3240 C.3     3  VAL3        0.0290
    132 CG1        13.2540   40.4440    2.4640 C.3     3  VAL3        0.0023
    133 CG2        15.0240   40.3960    4.1800 C.3     3  VAL3        0.0023
    134 N          11.2410   37.6600    3.4240 N.am    4  VAL4       -0.1963
    135 CA         10.3740   36.6730    2.7940 C.3     4  VAL4        0.1727
    136 C           9.5390   37.4530    1.7860 C.2     4  VAL4        0.2616
    137 O           8.9080   38.3940    2.2820 O.2     4  VAL4       -0.2715
    138 CB          9.4550   35.9580    3.8080 C.3     4  VAL4        0.0290
    139 CG1         8.3870   35.1060    3.0960 C.3     4  VAL4        0.0023
    140 CG2        10.2410   35.0610    4.7730 C.3     4  VAL4        0.0023
    141 N           9.5300   37.1390    0.5160 N.am    5  THR5       -0.1951
    142 CA          8.6550   37.8970   -0.4120 C.3     5  THR5        0.1897
    143 C           7.7620   36.8580   -1.1130 C.2     5  THR5        0.2313
    144 O           8.1500   35.6740   -1.1930 O.2     5  THR5       -0.2863
    145 CB          9.3970   38.8150   -1.4170 C.3     5  THR5        0.1794
    146 OG1        10.1420   37.8420   -2.2060 O.3     5  THR5       -0.2208
    147 CG2        10.2410   39.9200   -0.8000 C.3     5  THR5        0.0378
@<TRIPOS>UNITY_ATOM_ATTR
8 1
charge -1
60 1
charge -1
@<TRIPOS>BOND
     1     1     2    1
     2     2     5    1
     3     2     3    1
     4     3     4    2
     5     3    10   am
     6     5     6    1
     7     6     7    1
     8     7     9   ar
     9     7     8   ar
    10    10    11    1
    11    11    12    1
    12    11    14    1
    13    12    13    2
    14    14    15    1
    15    16    17    1
    16    17    20    1
    17    17    18    1
    18    18    19    2
    19    18    22   am
    20    20    21    1
    21    22    28    1
    22    22    23    1
    23    23    26    1
    24    23    24    1
    25    24    25    2
    26    26    27    1
    27    27    28    1
    28    29    30    1
    29    30    33    1
    30    30    31    1
    31    31    37   am
    32    31    32    2
    33    33    34    1
    34    34    35    1
    35    35    36    1
    36    37    38    1
    37    38    39    1
    38    38    41    1
    39    39    40    2
    40    39    44   am
    41    41    43    1
    42    41    42    1
    43    44    45    1
    44    45    48    1
    45    45    46    1
    46    46    47    2
    47    48    49    1
    48    49    50    2
    49    50    51    1
    50    51    52    1
    51    53    54    1
    52    54    57    1
    53    54    55    1
    54    55    56    2
    55    57    58    1
    56    58    59    1
    57    59    60   ar
    58    59    61   ar
    59    62    63    1
    60    63    66    1
    61    63    64    1
    62    64    65    2
    63    66    67    1
    64    67    69   ar
    65    67    68   ar
    66    68    70   ar
    67    69    71   ar
    68    70    71   ar
    69    72    73    1
    70    73    76    1
    71    73    74    1
    72    74    83   am
    73    74    75    2
    74    76    77    1
    75    77    78    1
    76    78    79    1
    77    79    80    2
    78    80    81    1
    79    80    82    1
    80    83    84    1
    81    84    85    1
    82    84    87    1
    83    85    86    2
    84    85    95   am
    85    87    88    1
    86    88    89   ar
    87    88    90   ar
    88    89    91   ar
    89    90    92   ar
    90    91    93   ar
    91    92    93   ar
    92    93    94    1
    93    95    96    1
    94    96    99    1
    95    96    97    1
    96    97   102   am
    97    97    98    2
    98    99   100    1
    99    99   101    1
   100   102   103    1
   101   103   104    1
   102   103   106    1
   103   104   105    2
   104   104   110   am
   105   106   107    1
   106   106   108    1
   107   107   109    1
   108   110   111    1
   109   111   114    1
   110   111   112    1
   111   112   113    2
   112   115   116    1
   113   116   117    1
   114   116   119    1
   115   117   118    2
   116   117   122   am
   117   119   121    1
   118   119   120    1
   119   122   123    1
   120   123   124    1
   121   123   126    1
   122   124   127   am
   123   124   125    2
   124   127   128    1
   125   128   131    1
   126   128   129    1
   127   129   130    2
   128   129   134   am
   129   131   132    1
   130   131   133    1
   131   134   135    1
   132   135   136    1
   133   135   138    1
   134   136   141   am
   135   136   137    2
   136   138   139    1
   137   138   140    1
   138   141   142    1
   139   142   145    1
   140   142   143    1
   141   143   144    2
   142   145   146    1
   143   145   147    1
