@<TRIPOS>MOLECULE
./2fa0/protein.pdb
 278 272 0 0 0
SMALL
GASTEIGER

@<TRIPOS>ATOM
      1 N          38.8190    4.7210    3.9100 N.3     1  LYS1       -0.1245
      2 CA         38.6760    4.5890    5.3850 C.3     1  LYS1        0.1561
      3 C          37.3800    5.0660    6.0540 C.2     1  LYS1        0.2260
      4 O          36.8040    4.3410    6.8710 O.2     1  LYS1       -0.2867
      5 CB         39.8780    5.1970    6.1170 C.3     1  LYS1        0.0271
      6 CG         40.1590    4.5190    7.4720 C.3     1  LYS1        0.0035
      7 CD         41.2390    5.2680    8.2800 C.3     1  LYS1        0.0206
      8 CE         41.7520    4.4120    9.4300 C.3     1  LYS1        0.1093
      9 NZ         40.6670    3.4880    9.8810 N.3     1  LYS1       -0.1314
     10 N          34.2230    2.9130    7.8090 N.3     1  LEU1       -0.1245
     11 CA         33.2020    3.3070    8.7910 C.3     1  LEU1        0.1561
     12 C          31.8540    3.2080    8.1100 C.2     1  LEU1        0.2260
     13 O          30.8040    2.9920    8.7700 O.2     1  LEU1       -0.2867
     14 CB         33.3980    4.7600    9.2300 C.3     1  LEU1        0.0270
     15 CG         34.7050    5.0060   10.0110 C.3     1  LEU1        0.0019
     16 CD1        34.9000    6.4720   10.4890 C.3     1  LEU1        0.0001
     17 CD2        34.7740    4.0340   11.1900 C.3     1  LEU1        0.0001
     18 N          23.4660   12.6450   26.7940 N.3     1  GLU1       -0.1245
     19 CA         24.7210   12.4440   27.4650 C.3     1  GLU1        0.1565
     20 C          25.6650   13.6230   27.2860 C.2     1  GLU1        0.2260
     21 O          26.8550   13.5840   27.7250 O.2     1  GLU1       -0.2867
     22 CB         25.3980   11.2050   26.9510 C.3     1  GLU1        0.0329
     23 CG         25.7990   11.1980   25.4840 C.3     1  GLU1        0.0437
     24 CD         27.0430   10.3240   25.3110 C.2     1  GLU1        0.0504
     25 OE2        28.1540   10.7330   25.7300 O.co2   1  GLU1       -0.5492
     26 OE1        26.9220    9.2130   24.8220 O.co2   1  GLU1       -0.5492
     27 N          25.2120    7.2650   28.7100 N.3     1  ALA1       -0.1231
     28 CA         25.8220    7.2140   27.3950 C.3     1  ALA1        0.1694
     29 C          24.7530    7.3850   26.2920 C.2     1  ALA1        0.2592
     30 O          23.9930    8.3760   26.3120 O.2     1  ALA1       -0.2718
     31 CB         26.5670    5.9340   27.2070 C.3     1  ALA1        0.0304
     32 N          24.1930    6.5460   24.8920 N.am    2  CYS2       -0.1956
     33 CA         23.4630    6.3650   23.6720 C.3     2  CYS2        0.1843
     34 C          22.1580    5.7770   24.1410 C.2     2  CYS2        0.2625
     35 O          21.1220    5.8640   23.5130 O.2     2  CYS2       -0.2714
     36 CB         24.3040    5.4970   22.7250 C.3     2  CYS2        0.0997
     37 SG         25.7800    6.2980   22.4990 S.3     2  CYS2       -0.0797
     38 N          22.1750    5.5790   25.5170 N.am    3  TYR3       -0.1974
     39 CA         21.0090    4.8110   26.0900 C.3     3  TYR3        0.1639
     40 C          19.9560    5.6940   26.7490 C.2     3  TYR3        0.2290
     41 O          18.8130    5.2790   26.8650 O.2     3  TYR3       -0.2864
     42 CB         21.4100    3.6840   27.0580 C.3     3  TYR3        0.0560
     43 CG         20.2590    2.7830   27.5200 C.ar    3  TYR3       -0.0198
     44 CD1        19.8430    1.6850   26.7550 C.ar    3  TYR3       -0.0009
     45 CD2        19.5880    3.0360   28.7140 C.ar    3  TYR3       -0.0009
     46 CE1        18.8190    0.8480   27.1650 C.ar    3  TYR3        0.0417
     47 CE2        18.5400    2.2190   29.1590 C.ar    3  TYR3        0.0417
     48 CZ         18.1700    1.1220   28.3660 C.ar    3  TYR3        0.1957
     49 OH         17.1350    0.3470   28.7840 O.3     3  TYR3       -0.2866
     50 N          27.6740   14.6740   19.2340 N.3     1  ALA1       -0.1245
     51 CA         28.7950   13.7170   19.3550 C.3     1  ALA1        0.1562
     52 C          30.0410   14.2820   18.7040 C.2     1  ALA1        0.2260
     53 O          30.0190   14.6770   17.5560 O.2     1  ALA1       -0.2867
     54 CB         28.4160   12.3130   18.7980 C.3     1  ALA1        0.0290
     55 N          34.4510   14.6100   19.0790 N.3     1  TYR1       -0.1241
     56 CA         35.5750   13.8020   19.5100 C.3     1  TYR1        0.1605
     57 C          36.8440   14.6110   19.2440 C.2     1  TYR1        0.2264
     58 O          36.8280   15.5510   18.4280 O.2     1  TYR1       -0.2867
     59 CB         35.6480   12.4810   18.7430 C.3     1  TYR1        0.0534
     60 CG         34.6950   11.3450   19.1160 C.ar    1  TYR1       -0.0201
     61 CD2        34.9600   10.4950   20.1940 C.ar    1  TYR1       -0.0009
     62 CD1        33.5700   11.0780   18.3500 C.ar    1  TYR1       -0.0009
     63 CE2        34.0980    9.4250   20.5290 C.ar    1  TYR1        0.0417
     64 CE1        32.7040   10.0190   18.6750 C.ar    1  TYR1        0.0417
     65 CZ         32.9810    9.1950   19.7680 C.ar    1  TYR1        0.1957
     66 OH         32.1410    8.1400   20.0540 O.3     1  TYR1       -0.2866
     67 N          41.5640    8.8280   15.8550 N.3     1  PRO1       -0.2102
     68 CA         40.7490    8.2080   14.8250 C.3     1  PRO1        0.1504
     69 C          39.2070    8.0980   15.1280 C.2     1  PRO1        0.2575
     70 O          38.5010    7.3490   14.4200 O.2     1  PRO1       -0.2718
     71 CB         41.3780    6.8070   14.7450 C.3     1  PRO1        0.0282
     72 CG         41.7920    6.5150   16.2220 C.3     1  PRO1        0.0208
     73 CD         42.2570    7.8360   16.7210 C.3     1  PRO1        0.0893
     74 N          38.7230    8.7760   16.1830 N.am    2  ALA2       -0.1980
     75 CA         37.2860    8.8420   16.5370 C.3     2  ALA2        0.1597
     76 C          36.5320   10.1280   16.0880 C.2     2  ALA2        0.2287
     77 O          35.3020   10.1670   16.0680 O.2     2  ALA2       -0.2864
     78 CB         37.0890    8.5810   18.0480 C.3     2  ALA2        0.0319
     79 N          33.6070   10.0870   13.4890 N.3     1  THR1       -0.1218
     80 CA         32.3400    9.5050   13.9500 C.3     1  THR1        0.1862
     81 C          31.6440   10.4740   14.9220 C.2     1  THR1        0.2287
     82 O          31.2380   10.0510   15.9900 O.2     1  THR1       -0.2866
     83 CB         32.6310    8.2570   14.8000 C.3     1  THR1        0.1770
     84 OG1        33.6200    8.6340   15.7630 O.3     1  THR1       -0.2211
     85 CG2        33.1510    7.0760   13.9730 C.3     1  THR1        0.0375
     86 N          34.4090    0.8120   28.6800 N.3     1  ASP1       -0.1227
     87 CA         34.6970    0.9020   27.2380 C.3     1  ASP1        0.1748
     88 C          34.6380    2.3300   26.6520 C.2     1  ASP1        0.2595
     89 O          35.4090    2.6650   25.7790 O.2     1  ASP1       -0.2718
     90 CB         33.7670   -0.0480   26.4610 C.3     1  ASP1        0.0701
     91 CG         32.2660    0.3240   26.6110 C.2     1  ASP1        0.0523
     92 OD1        31.5400    0.3100   25.6140 O.co2   1  ASP1       -0.5491
     93 OD2        31.8160    0.6720   27.7030 O.co2   1  ASP1       -0.5491
     94 N          33.6710    3.1360   27.0630 N.am    2  PHE2       -0.1976
     95 CA         33.5880    4.5190   26.6320 C.3     2  PHE2        0.1639
     96 C          32.9010    5.2760   27.7840 C.2     2  PHE2        0.2290
     97 O          31.9610    4.7830   28.3950 O.2     2  PHE2       -0.2864
     98 CB         32.8940    4.6370   25.2480 C.3     2  PHE2        0.0560
     99 CG         32.3310    6.0330   24.8960 C.ar    2  PHE2       -0.0200
    100 CD1        32.6750    6.6470   23.6750 C.ar    2  PHE2       -0.0042
    101 CD2        31.4440    6.7160   25.7460 C.ar    2  PHE2       -0.0042
    102 CE1        32.1250    7.9420   23.2970 C.ar    2  PHE2       -0.0003
    103 CE2        30.8930    8.0050   25.4040 C.ar    2  PHE2       -0.0003
    104 CZ         31.2370    8.6150   24.1830 C.ar    2  PHE2       -0.0000
    105 N          35.1740   12.1700   25.2140 N.3     1  PRO1       -0.2116
    106 CA         35.1910   10.8710   25.9120 C.3     1  PRO1        0.1372
    107 C          36.6000   10.2740   26.0610 C.2     1  PRO1        0.2244
    108 O          37.4360   10.5790   25.2610 O.2     1  PRO1       -0.2868
    109 CB         34.3490    9.9820   24.9810 C.3     1  PRO1        0.0268
    110 CG         34.4400   10.6580   23.6070 C.3     1  PRO1        0.0207
    111 CD         34.4290   12.1270   23.9340 C.3     1  PRO1        0.0892
    112 N          37.8390    6.7270   25.2170 N.3     1  VAL1       -0.1231
    113 CA         37.3030    5.6240   24.4110 C.3     1  VAL1        0.1692
    114 C          38.3450    4.5730   24.2550 C.2     1  VAL1        0.2592
    115 O          39.4380    4.8530   23.7890 O.2     1  VAL1       -0.2718
    116 CB         36.9640    5.9970   22.9500 C.3     1  VAL1        0.0266
    117 CG1        36.3600    4.7850   22.2580 C.3     1  VAL1        0.0020
    118 CG2        36.0110    7.1840   22.8280 C.3     1  VAL1        0.0020
    119 N          37.9970    3.3470   24.6050 N.am    2  ASP2       -0.1962
    120 CA         38.8720    2.2240   24.3800 C.3     2  ASP2        0.1783
    121 C          38.2380    1.3600   23.2640 C.2     2  ASP2        0.2621
    122 O          37.8330    0.2090   23.5060 O.2     2  ASP2       -0.2715
    123 CB         39.0680    1.4910   25.7050 C.3     2  ASP2        0.0728
    124 CG         39.8270    0.1730   25.5710 C.2     2  ASP2        0.0526
    125 OD1        40.2350   -0.2580   24.4400 O.co2   2  ASP2       -0.5491
    126 OD2        40.0040   -0.4340   26.6620 O.co2   2  ASP2       -0.5491
    127 N          38.1560    1.9610   22.0580 N.am    3  GLY3       -0.1940
    128 CA         37.6570    1.3730   20.7870 C.3     3  GLY3        0.2014
    129 C          37.7420   -0.1290   20.4740 C.2     3  GLY3        0.2639
    130 O          36.9240   -0.6600   19.7130 O.2     3  GLY3       -0.2714
    131 N          38.7470   -0.8110   21.0270 N.am    4  LYS4       -0.1963
    132 CA         38.7650   -2.2840   21.0520 C.3     4  LYS4        0.1728
    133 C          37.6240   -2.7540   21.9820 C.2     4  LYS4        0.2616
    134 O          36.5980   -3.2650   21.4810 O.2     4  LYS4       -0.2715
    135 CB         40.1790   -2.8210   21.4400 C.3     4  LYS4        0.0311
    136 CG         40.3340   -4.3430   21.7270 C.3     4  LYS4        0.0038
    137 CD         40.4070   -4.6090   23.2450 C.3     4  LYS4        0.0206
    138 CE         39.2710   -5.5680   23.6930 C.3     4  LYS4        0.1093
    139 NZ         39.3330   -5.9880   25.1290 N.3     4  LYS4       -0.1314
    140 N          37.7730   -2.5360   23.3000 N.am    5  LEU5       -0.1963
    141 CA         36.7260   -2.8650   24.3110 C.3     5  LEU5        0.1728
    142 C          35.3700   -2.3580   23.8440 C.2     5  LEU5        0.2617
    143 O          34.3650   -3.0560   23.9670 O.2     5  LEU5       -0.2715
    144 CB         37.0500   -2.2810   25.6820 C.3     5  LEU5        0.0311
    145 CG         37.5790   -3.0850   26.8960 C.3     5  LEU5        0.0022
    146 CD2        36.9320   -4.4640   27.0820 C.3     5  LEU5        0.0001
    147 CD1        39.1390   -3.2220   26.9400 C.3     5  LEU5        0.0001
    148 N          35.3660   -1.1540   23.2570 N.am    6  SER6       -0.1936
    149 CA         34.1250   -0.5280   22.7880 C.3     6  SER6        0.2055
    150 C          33.3360   -1.4000   21.8010 C.2     6  SER6        0.2643
    151 O          32.1180   -1.2590   21.7370 O.2     6  SER6       -0.2714
    152 CB         34.3470    0.8820   22.2200 C.3     6  SER6        0.2130
    153 OG         34.5930    0.8680   20.8140 O.3     6  SER6       -0.2179
    154 N          33.9970   -2.2870   21.0440 N.am    7  GLN7       -0.1963
    155 CA         33.2640   -3.1980   20.1410 C.3     7  GLN7        0.1733
    156 C          32.9070   -4.5460   20.8320 C.2     7  GLN7        0.2617
    157 O          31.7800   -5.0240   20.7080 O.2     7  GLN7       -0.2715
    158 CB         34.0270   -3.3820   18.8280 C.3     7  GLN7        0.0408
    159 CG         33.2060   -3.8960   17.6270 C.3     7  GLN7        0.0908
    160 CD         33.8350   -3.5190   16.2310 C.2     7  GLN7        0.2608
    161 OE1        34.2200   -4.4050   15.4440 O.2     7  GLN7       -0.2717
    162 NE2        33.9340   -2.1980   15.9410 N.am    7  GLN7       -0.0878
    163 N          33.8600   -5.1010   21.5840 N.am    8  THR8       -0.1937
    164 CA         33.7260   -6.3480   22.3470 C.3     8  THR8        0.2028
    165 C          32.6020   -6.3530   23.4200 C.2     8  THR8        0.2642
    166 O          32.2130   -7.4170   23.9680 O.2     8  THR8       -0.2714
    167 CB         35.0610   -6.6080   23.0800 C.3     8  THR8        0.1808
    168 OG1        36.1400   -6.5510   22.1310 O.3     8  THR8       -0.2208
    169 CG2        35.0830   -7.9490   23.7990 C.3     8  THR8        0.0379
    170 N          32.1210   -5.1580   23.7500 N.am    9  CYS9       -0.1953
    171 CA         31.1930   -4.9770   24.8430 C.3     9  CYS9        0.1843
    172 C          29.8600   -4.7030   24.2240 C.2     9  CYS9        0.2625
    173 O          28.8250   -5.1580   24.7390 O.2     9  CYS9       -0.2714
    174 CB         31.6310   -3.8180   25.7420 C.3     9  CYS9        0.0997
    175 SG         32.8500   -4.2800   26.9800 S.3     9  CYS9       -0.0797
    176 N          29.8950   -3.9870   23.1020 N.am   10  TYR10      -0.1960
    177 CA         28.7210   -3.7990   22.3030 C.3    10  TYR10       0.1771
    178 C          28.1550   -5.1360   21.9400 C.2    10  TYR10       0.2619
    179 O          26.9530   -5.3150   22.0340 O.2    10  TYR10      -0.2715
    180 CB         29.0410   -3.0470   21.0480 C.3    10  TYR10       0.0574
    181 CG         27.8570   -2.7260   20.1970 C.ar   10  TYR10      -0.0198
    182 CD1        27.2970   -3.6680   19.3440 C.ar   10  TYR10      -0.0009
    183 CD2        27.3250   -1.4660   20.2080 C.ar   10  TYR10      -0.0009
    184 CE1        26.1930   -3.3590   18.5610 C.ar   10  TYR10       0.0417
    185 CE2        26.2380   -1.1310   19.4200 C.ar   10  TYR10       0.0417
    186 CZ         25.6640   -2.0830   18.6110 C.ar   10  TYR10       0.1957
    187 OH         24.5840   -1.7140   17.8410 O.3    10  TYR10      -0.2866
    188 N          28.9910   -6.0970   21.5610 N.am   11  LEU11      -0.1977
    189 CA         28.4500   -7.3770   21.0660 C.3    11  LEU11       0.1596
    190 C          28.1370   -8.3340   22.2130 C.2    11  LEU11       0.2287
    191 O          27.1500   -9.1000   22.1640 O.2    11  LEU11      -0.2864
    192 CB         29.4100   -8.0310   20.0730 C.3    11  LEU11       0.0297
    193 CG         29.4480   -7.8430   18.5480 C.3    11  LEU11       0.0022
    194 CD1        28.6130   -6.7250   17.9180 C.3    11  LEU11       0.0001
    195 CD2        30.8970   -7.6770   18.2280 C.3    11  LEU11       0.0001
    196 N          21.3330    0.9380   17.2990 N.3     1  HIS1       -0.1241
    197 CA         22.1210    2.1420   17.5380 C.3     1  HIS1        0.1618
    198 C          23.1820    2.1560   16.4510 C.2     1  HIS1        0.2264
    199 O          23.8530    1.1610   16.1980 O.2     1  HIS1       -0.2867
    200 CB         22.7580    2.1310   18.9490 C.3     1  HIS1        0.0704
    201 CG         23.7170    3.2440   19.1760 C.2     1  HIS1        0.0649
    202 ND1        23.3420    4.5650   19.1120 N.2     1  HIS1       -0.2310
    203 CD2        25.0430    3.2410   19.4790 C.3     1  HIS1        0.1683
    204 CE1        24.4010    5.3380   19.3480 C.2     1  HIS1        0.1939
    205 NE2        25.4440    4.5580   19.5820 N.2     1  HIS1       -0.2440
    206 N          26.3830    4.0680   15.5960 N.3     1  PRO1       -0.2102
    207 CA         27.5140    4.9970   15.7370 C.3     1  PRO1        0.1504
    208 C          28.3660    5.1530   14.4160 C.2     1  PRO1        0.2575
    209 O          29.0800    6.1880   14.2400 O.2     1  PRO1       -0.2718
    210 CB         28.2970    4.4140   16.9060 C.3     1  PRO1        0.0282
    211 CG         28.0050    2.9690   16.8360 C.3     1  PRO1        0.0208
    212 CD         26.5770    2.8450   16.3970 C.3     1  PRO1        0.0893
    213 N          28.2760    4.1520   13.5300 N.am    2  TYR2       -0.1977
    214 CA         28.8280    4.1840   12.1410 C.3     2  TYR2        0.1639
    215 C          28.3600    2.8840   11.5560 C.2     2  TYR2        0.2290
    216 O          28.1240    1.8700   12.2860 O.2     2  TYR2       -0.2864
    217 CB         30.3750    4.3330   12.0190 C.3     2  TYR2        0.0560
    218 CG         31.0850    3.3620   12.8960 C.ar    2  TYR2       -0.0198
    219 CD2        31.3410    3.6580   14.2440 C.ar    2  TYR2       -0.0009
    220 CD1        31.4230    2.0880   12.4230 C.ar    2  TYR2       -0.0009
    221 CE2        31.9300    2.7200   15.0650 C.ar    2  TYR2        0.0417
    222 CE1        32.0360    1.1490   13.2480 C.ar    2  TYR2        0.0417
    223 CZ         32.2710    1.4700   14.5610 C.ar    2  TYR2        0.1957
    224 OH         32.8680    0.5340   15.3610 O.3     2  TYR2       -0.2866
    225 N          29.7430   -1.0630   12.0140 N.3     1  LEU1       -0.1245
    226 CA         29.2760   -1.7790   13.1800 C.3     1  LEU1        0.1561
    227 C          27.7790   -2.1300   13.1200 C.2     1  LEU1        0.2260
    228 O          27.3520   -3.1540   13.6720 O.2     1  LEU1       -0.2867
    229 CB         29.6010   -0.9700   14.4090 C.3     1  LEU1        0.0270
    230 CG         29.2930   -1.7520   15.6460 C.3     1  LEU1        0.0019
    231 CD1        30.3220   -2.9000   15.8170 C.3     1  LEU1        0.0001
    232 CD2        29.1370   -0.7620   16.8090 C.3     1  LEU1        0.0001
    233 N          27.2100    9.7810   14.1170 N.3     1  ASN1       -0.1240
    234 CA         26.7400    9.3060   15.4370 C.3     1  ASN1        0.1653
    235 C          25.8580   10.3460   16.0880 C.2     1  ASN1        0.2266
    236 O          26.2720   11.5050   16.2710 O.2     1  ASN1       -0.2867
    237 CB         27.9130    9.0000   16.3740 C.3     1  ASN1        0.1155
    238 CG         27.5250    8.0070   17.5110 C.2     1  ASN1        0.2627
    239 OD1        26.3660    7.9040   17.9190 O.2     1  ASN1       -0.2716
    240 ND2        28.5190    7.2720   18.0120 N.am    1  ASN1       -0.0877
    241 N          24.3560    9.6700   19.1150 N.3     1  TYR1       -0.1241
    242 CA         24.2090    9.2340   20.4630 C.3     1  TYR1        0.1605
    243 C          22.7150    8.8520   20.8030 C.2     1  TYR1        0.2264
    244 O          22.1280    8.0140   20.1360 O.2     1  TYR1       -0.2867
    245 CB         24.8350   10.2730   21.4150 C.3     1  TYR1        0.0534
    246 CG         26.3900   10.3450   21.4130 C.ar    1  TYR1       -0.0201
    247 CD1        27.1720    9.4000   20.7030 C.ar    1  TYR1       -0.0009
    248 CD2        27.0730   11.2910   22.2210 C.ar    1  TYR1       -0.0009
    249 CE1        28.5380    9.4210   20.7290 C.ar    1  TYR1        0.0417
    250 CE2        28.4630   11.3400   22.2420 C.ar    1  TYR1        0.0417
    251 CZ         29.2000   10.4010   21.4700 C.ar    1  TYR1        0.1957
    252 OH         30.5920   10.4220   21.4720 O.3     1  TYR1       -0.2866
    253 N          21.8780    0.4420   22.6520 N.3     1  TYR1       -0.1227
    254 CA         23.1070    0.2230   23.4320 C.3     1  TYR1        0.1736
    255 C          23.5950    1.5290   23.9960 C.2     1  TYR1        0.2596
    256 O          23.4060    2.5590   23.3710 O.2     1  TYR1       -0.2718
    257 CB         24.2350   -0.4170   22.5850 C.3     1  TYR1        0.0548
    258 CG         25.5350   -0.6510   23.3530 C.ar    1  TYR1       -0.0200
    259 CD2        25.6810   -1.7580   24.2110 C.ar    1  TYR1       -0.0009
    260 CD1        26.6180    0.2700   23.2480 C.ar    1  TYR1       -0.0009
    261 CE2        26.8880   -1.9790   24.9250 C.ar    1  TYR1        0.0417
    262 CE1        27.8340    0.0550   23.9580 C.ar    1  TYR1        0.0417
    263 CZ         27.9460   -1.0480   24.7900 C.ar    1  TYR1        0.1957
    264 OH         29.1120   -1.2360   25.4670 O.3     1  TYR1       -0.2866
    265 N          24.2200    1.5100   25.1730 N.am    2  GLY2       -0.1942
    266 CA         24.8920    2.7160   25.7350 C.3     2  GLY2        0.2014
    267 C          26.1390    2.1870   26.3920 C.2     2  GLY2        0.2640
    268 O          26.0750    1.1390   27.0290 O.2     2  GLY2       -0.2714
    269 N          27.2800    2.8320   26.2290 N.am    3  SER3       -0.1935
    270 CA         28.5040    2.2700   26.8420 C.3     3  SER3        0.2055
    271 C          28.4600    2.2920   28.3720 C.2     3  SER3        0.2643
    272 O          27.6940    3.0310   28.9760 O.2     3  SER3       -0.2714
    273 CB         29.7930    3.0240   26.3920 C.3     3  SER3        0.2130
    274 OG         30.1120    2.7270   25.0310 O.3     3  SER3       -0.2179
    275 N          29.3180    1.5050   28.9970 N.am    4  GLY4       -0.1954
    276 CA         29.4920    1.5920   30.4120 C.3     4  GLY4        0.1869
    277 C          28.9540    0.5410   31.3850 C.2     4  GLY4        0.2309
    278 O          29.3160    0.6750   32.5760 O.2     4  GLY4       -0.2863
@<TRIPOS>UNITY_ATOM_ATTR
25 1
charge -1
92 1
charge -1
125 1
charge -1
@<TRIPOS>BOND
     1     1     2    1
     2     2     3    1
     3     2     5    1
     4     3     4    2
     5     5     6    1
     6     6     7    1
     7     7     8    1
     8     8     9    1
     9    10    11    1
    10    11    12    1
    11    11    14    1
    12    12    13    2
    13    14    15    1
    14    15    16    1
    15    15    17    1
    16    18    19    1
    17    19    22    1
    18    19    20    1
    19    20    21    2
    20    22    23    1
    21    23    24    1
    22    24    26   ar
    23    24    25   ar
    24    27    28    1
    25    28    29    1
    26    28    31    1
    27    29    32   am
    28    29    30    2
    29    32    33    1
    30    33    36    1
    31    33    34    1
    32    34    35    2
    33    34    38   am
    34    36    37    1
    35    38    39    1
    36    39    40    1
    37    39    42    1
    38    40    41    2
    39    42    43    1
    40    43    44   ar
    41    43    45   ar
    42    44    46   ar
    43    45    47   ar
    44    46    48   ar
    45    47    48   ar
    46    48    49    1
    47    50    51    1
    48    51    52    1
    49    51    54    1
    50    52    53    2
    51    55    56    1
    52    56    59    1
    53    56    57    1
    54    57    58    2
    55    59    60    1
    56    60    62   ar
    57    60    61   ar
    58    61    63   ar
    59    62    64   ar
    60    63    65   ar
    61    64    65   ar
    62    65    66    1
    63    67    68    1
    64    67    73    1
    65    68    71    1
    66    68    69    1
    67    69    70    2
    68    69    74   am
    69    71    72    1
    70    72    73    1
    71    74    75    1
    72    75    76    1
    73    75    78    1
    74    76    77    2
    75    79    80    1
    76    80    83    1
    77    80    81    1
    78    81    82    2
    79    83    85    1
    80    83    84    1
    81    86    87    1
    82    87    90    1
    83    87    88    1
    84    88    89    2
    85    88    94   am
    86    90    91    1
    87    91    92   ar
    88    91    93   ar
    89    94    95    1
    90    95    98    1
    91    95    96    1
    92    96    97    2
    93    98    99    1
    94    99   100   ar
    95    99   101   ar
    96   100   102   ar
    97   101   103   ar
    98   102   104   ar
    99   103   104   ar
   100   105   111    1
   101   105   106    1
   102   106   109    1
   103   106   107    1
   104   107   108    2
   105   109   110    1
   106   110   111    1
   107   112   113    1
   108   113   116    1
   109   113   114    1
   110   114   115    2
   111   114   119   am
   112   116   117    1
   113   116   118    1
   114   119   120    1
   115   120   121    1
   116   120   123    1
   117   121   127   am
   118   121   122    2
   119   123   124    1
   120   124   125   ar
   121   124   126   ar
   122   127   128    1
   123   128   129    1
   124   129   130    2
   125   129   131   am
   126   131   132    1
   127   132   135    1
   128   132   133    1
   129   133   134    2
   130   133   140   am
   131   135   136    1
   132   136   137    1
   133   137   138    1
   134   138   139    1
   135   140   141    1
   136   141   142    1
   137   141   144    1
   138   142   148   am
   139   142   143    2
   140   144   145    1
   141   145   147    1
   142   145   146    1
   143   148   149    1
   144   149   150    1
   145   149   152    1
   146   150   154   am
   147   150   151    2
   148   152   153    1
   149   154   155    1
   150   155   158    1
   151   155   156    1
   152   156   157    2
   153   156   163   am
   154   158   159    1
   155   159   160    1
   156   160   161    2
   157   160   162   am
   158   163   164    1
   159   164   167    1
   160   164   165    1
   161   165   170   am
   162   165   166    2
   163   167   168    1
   164   167   169    1
   165   170   171    1
   166   171   172    1
   167   171   174    1
   168   172   176   am
   169   172   173    2
   170   174   175    1
   171   176   177    1
   172   177   180    1
   173   177   178    1
   174   178   188   am
   175   178   179    2
   176   180   181    1
   177   181   182   ar
   178   181   183   ar
   179   182   184   ar
   180   183   185   ar
   181   184   186   ar
   182   185   186   ar
   183   186   187    1
   184   188   189    1
   185   189   192    1
   186   189   190    1
   187   190   191    2
   188   192   193    1
   189   193   194    1
   190   193   195    1
   191   196   197    1
   192   197   198    1
   193   197   200    1
   194   198   199    2
   195   200   201    1
   196   201   202    2
   197   201   203    1
   198   202   204    1
   199   203   205    1
   200   204   205    2
   201   206   207    1
   202   206   212    1
   203   207   208    1
   204   207   210    1
   205   208   213   am
   206   208   209    2
   207   210   211    1
   208   211   212    1
   209   213   214    1
   210   214   215    1
   211   214   217    1
   212   215   216    2
   213   217   218    1
   214   218   220   ar
   215   218   219   ar
   216   219   221   ar
   217   220   222   ar
   218   221   223   ar
   219   222   223   ar
   220   223   224    1
   221   225   226    1
   222   226   227    1
   223   226   229    1
   224   227   228    2
   225   229   230    1
   226   230   231    1
   227   230   232    1
   228   233   234    1
   229   234   235    1
   230   234   237    1
   231   235   236    2
   232   237   238    1
   233   238   239    2
   234   238   240   am
   235   241   242    1
   236   242   243    1
   237   242   245    1
   238   243   244    2
   239   245   246    1
   240   246   247   ar
   241   246   248   ar
   242   247   249   ar
   243   248   250   ar
   244   249   251   ar
   245   250   251   ar
   246   251   252    1
   247   253   254    1
   248   254   257    1
   249   254   255    1
   250   255   256    2
   251   255   265   am
   252   257   258    1
   253   258   260   ar
   254   258   259   ar
   255   259   261   ar
   256   260   262   ar
   257   261   263   ar
   258   262   263   ar
   259   263   264    1
   260   265   266    1
   261   266   267    1
   262   267   269   am
   263   267   268    2
   264   269   270    1
   265   270   273    1
   266   270   271    1
   267   271   272    2
   268   271   275   am
   269   273   274    1
   270   275   276    1
   271   276   277    1
   272   277   278    2
