@<TRIPOS>MOLECULE
./1lby/protein.pdb
 292 286 0 0 0
SMALL
GASTEIGER

@<TRIPOS>ATOM
      1 N          -2.2300   49.7180    4.4050 N.3     1  ASP1       -0.1241
      2 CA         -3.2590   48.8080    3.9540 C.3     1  ASP1        0.1616
      3 C          -4.3790   48.6420    5.0200 C.2     1  ASP1        0.2264
      4 O          -5.5240   48.2750    4.6830 O.2     1  ASP1       -0.2867
      5 CB         -2.6340   47.4150    3.7780 C.3     1  ASP1        0.0687
      6 CG         -1.5310   47.2010    4.8180 C.2     1  ASP1        0.0522
      7 OD2        -1.7160   47.7350    5.9380 O.co2   1  ASP1       -0.5491
      8 OD1        -0.5160   46.5870    4.4820 O.co2   1  ASP1       -0.5491
      9 N          -3.7840   46.7970    7.8870 N.3     1  THR1       -0.1204
     10 CA         -3.4540   45.5340    8.5870 C.3     1  THR1        0.1979
     11 C          -2.0860   45.6310    9.2210 C.2     1  THR1        0.2460
     12 O          -1.2820   46.4590    8.7460 O.2     1  THR1       -0.2732
     13 CB         -3.5440   44.3450    7.6280 C.3     1  THR1        0.1783
     14 OG1        -2.4740   44.4720    6.6620 O.3     1  THR1       -0.2211
     15 CG2        -4.8580   44.3020    6.8730 C.3     1  THR1        0.0376
     16 N          -1.8230   44.8650   10.2820 N.am    2  PRO2       -0.2717
     17 CA         -0.4750   44.9910   10.9160 C.3     2  PRO2        0.1536
     18 C           0.6650   44.7700    9.8730 C.2     2  PRO2        0.2599
     19 O           0.5850   43.8500    9.0770 O.2     2  PRO2       -0.2715
     20 CB         -0.4030   43.7750   11.8770 C.3     2  PRO2        0.0310
     21 CG         -1.4660   42.8610   11.3880 C.3     2  PRO2        0.0237
     22 CD         -2.5680   43.8170   10.9610 C.3     2  PRO2        0.0939
     23 N           1.6460   45.6420    9.9900 N.am    3  THR3       -0.1937
     24 CA          2.9690   45.6230    9.4040 C.3     3  THR3        0.2028
     25 C           3.9280   44.8570   10.3160 C.2     3  THR3        0.2642
     26 O           4.4350   45.4060   11.2970 O.2     3  THR3       -0.2714
     27 CB          3.5050   47.0530    9.2030 C.3     3  THR3        0.1808
     28 OG1         2.6820   47.7280    8.2450 O.3     3  THR3       -0.2208
     29 CG2         4.9210   47.0230    8.6480 C.3     3  THR3        0.0379
     30 N           4.1780   43.5840   10.0360 N.am    4  LYS4       -0.1977
     31 CA          5.0530   42.7820   10.8840 C.3     4  LYS4        0.1596
     32 C           6.5200   43.0390   10.5680 C.2     4  LYS4        0.2287
     33 O           6.8520   43.5160    9.4780 O.2     4  LYS4       -0.2864
     34 CB          4.7410   41.2930   10.7240 C.3     4  LYS4        0.0298
     35 CG          3.2870   40.9810   11.0710 C.3     4  LYS4        0.0038
     36 CD          3.1590   40.4420   12.4780 C.3     4  LYS4        0.0206
     37 CE          1.8200   39.7370   12.6690 C.3     4  LYS4        0.1093
     38 NZ          1.5430   39.5250   14.1180 N.3     4  LYS4       -0.1314
     39 N           7.6860   42.2110    7.2010 N.3     1  ASP1       -0.1241
     40 CA          7.2780   43.0800    6.0920 C.3     1  ASP1        0.1616
     41 C           8.0520   44.3980    6.1410 C.2     1  ASP1        0.2264
     42 O           8.2510   44.9950    5.0840 O.2     1  ASP1       -0.2867
     43 CB          5.7960   43.4370    6.0640 C.3     1  ASP1        0.0687
     44 CG          4.8900   42.2890    6.4360 C.2     1  ASP1        0.0522
     45 OD1         4.8080   41.3240    5.6480 O.co2   1  ASP1       -0.5491
     46 OD2         4.2820   42.3790    7.5200 O.co2   1  ASP1       -0.5491
     47 N           2.5870   47.9710   -0.1830 N.3     1  GLU1       -0.1231
     48 CA          1.7120   47.4500    0.8550 C.3     1  GLU1        0.1697
     49 C           1.7570   48.2650    2.1370 C.2     1  GLU1        0.2592
     50 O           0.7550   48.8030    2.6180 O.2     1  GLU1       -0.2718
     51 CB          2.0770   45.9910    1.1460 C.3     1  GLU1        0.0343
     52 CG          0.9440   45.1970    1.7470 C.3     1  GLU1        0.0437
     53 CD          1.2260   43.7290    1.9620 C.2     1  GLU1        0.0504
     54 OE1         2.0610   43.1260    1.2660 O.co2   1  GLU1       -0.5492
     55 OE2         0.5810   43.1490    2.8620 O.co2   1  GLU1       -0.5492
     56 N           2.8710   48.3390    2.8090 N.am    2  GLU2       -0.1979
     57 CA          2.8720   48.9150    4.1490 C.3     2  GLU2        0.1600
     58 C           2.8490   50.4370    4.1340 C.2     2  GLU2        0.2287
     59 O           2.1200   51.0530    4.9070 O.2     2  GLU2       -0.2864
     60 CB          4.1100   48.4470    4.9170 C.3     2  GLU2        0.0356
     61 CG          4.7180   47.1310    4.4910 C.3     2  GLU2        0.0439
     62 CD          3.8050   45.9350    4.6590 C.2     2  GLU2        0.0504
     63 OE2         3.5270   45.5340    5.8040 O.co2   2  GLU2       -0.5492
     64 OE1         3.3570   45.3810    3.6300 O.co2   2  GLU2       -0.5492
     65 N           4.5740   44.8420   -3.7780 N.3     1  ASP1       -0.1227
     66 CA          4.3100   43.9620   -2.6530 C.3     1  ASP1        0.1733
     67 C           5.6390   43.4440   -2.1300 C.2     1  ASP1        0.2438
     68 O           6.2750   42.6050   -2.7610 O.2     1  ASP1       -0.2733
     69 CB          3.3540   42.8620   -3.1080 C.3     1  ASP1        0.0700
     70 CG          2.5800   42.4110   -1.8720 C.2     1  ASP1        0.0523
     71 OD2         3.2820   42.2270   -0.8700 O.co2   1  ASP1       -0.5491
     72 OD1         1.3520   42.3040   -1.9740 O.co2   1  ASP1       -0.5491
     73 N           6.0770   43.9620   -0.9850 N.am    2  PRO2       -0.2718
     74 CA          7.4190   43.6730   -0.4750 C.3     2  PRO2        0.1535
     75 C           7.5100   42.2660    0.1100 C.2     2  PRO2        0.2598
     76 O           8.5920   41.7480    0.3760 O.2     2  PRO2       -0.2715
     77 CB          7.6250   44.7030    0.6330 C.3     2  PRO2        0.0310
     78 CG          6.3890   45.5210    0.7080 C.3     2  PRO2        0.0237
     79 CD          5.3140   44.8380   -0.0810 C.3     2  PRO2        0.0939
     80 N           6.3640   41.6180    0.3240 N.am    3  LEU3       -0.1964
     81 CA          6.4130   40.2530    0.8440 C.3     3  LEU3        0.1728
     82 C           5.0120   39.6610    0.9410 C.2     3  LEU3        0.2616
     83 O           4.4440   39.5390    2.0210 O.2     3  LEU3       -0.2715
     84 CB          7.1090   40.2230    2.1970 C.3     3  LEU3        0.0311
     85 CG          6.9770   38.9580    3.0500 C.3     3  LEU3        0.0022
     86 CD1         7.9670   37.8850    2.6280 C.3     3  LEU3        0.0001
     87 CD2         7.1730   39.2910    4.5300 C.3     3  LEU3        0.0001
     88 N           4.4610   39.2650   -0.1970 N.am    4  ASP4       -0.1959
     89 CA          3.1560   38.5850   -0.2420 C.3     4  ASP4        0.1783
     90 C           3.3620   37.1520    0.2300 C.2     4  ASP4        0.2621
     91 O           4.3520   36.5090   -0.1350 O.2     4  ASP4       -0.2715
     92 CB          2.6100   38.7430   -1.6510 C.3     4  ASP4        0.0728
     93 CG          1.1760   38.3480   -1.8920 C.2     4  ASP4        0.0526
     94 OD1         0.9550   37.5370   -2.8280 O.co2   4  ASP4       -0.5491
     95 OD2         0.2610   38.8130   -1.1760 O.co2   4  ASP4       -0.5491
     96 N           2.4880   36.6080    1.0680 N.am    5  GLY5       -0.1940
     97 CA          2.7440   35.3580    1.7580 C.3     5  GLY5        0.2014
     98 C           3.3400   35.5830    3.1440 C.2     5  GLY5        0.2640
     99 O           3.9890   34.6760    3.6910 O.2     5  GLY5       -0.2714
    100 N           3.1210   36.7740    3.7060 N.am    6  THR6       -0.1936
    101 CA          3.6080   37.1300    5.0390 C.3     6  THR6        0.2028
    102 C           3.2890   36.0210    6.0430 C.2     6  THR6        0.2642
    103 O           4.1990   35.4860    6.6840 O.2     6  THR6       -0.2714
    104 CB          3.0340   38.4650    5.5370 C.3     6  THR6        0.1808
    105 OG1         3.1800   39.4850    4.5370 O.3     6  THR6       -0.2208
    106 CG2         3.7890   38.9690    6.7650 C.3     6  THR6        0.0379
    107 N           2.0230   35.6500    6.1880 N.am    7  PHE7       -0.1959
    108 CA          1.5980   34.5920    7.0980 C.3     7  PHE7        0.1771
    109 C           2.4370   33.3290    6.9400 C.2     7  PHE7        0.2619
    110 O           2.7440   32.6430    7.9180 O.2     7  PHE7       -0.2715
    111 CB          0.1310   34.2330    6.8540 C.3     7  PHE7        0.0574
    112 CG         -0.4930   33.2040    7.7750 C.ar    7  PHE7       -0.0200
    113 CD2        -1.1620   33.6230    8.9180 C.ar    7  PHE7       -0.0042
    114 CD1        -0.4390   31.8420    7.5180 C.ar    7  PHE7       -0.0042
    115 CE2        -1.7590   32.7240    9.7770 C.ar    7  PHE7       -0.0003
    116 CE1        -1.0170   30.9280    8.3750 C.ar    7  PHE7       -0.0003
    117 CZ         -1.6800   31.3680    9.5100 C.ar    7  PHE7       -0.0000
    118 N           2.7780   32.9990    5.6980 N.am    8  ASN8       -0.1972
    119 CA          3.5420   31.7730    5.4610 C.3     8  ASN8        0.1688
    120 C           4.9900   31.9530    5.8840 C.2     8  ASN8        0.2292
    121 O           5.6170   31.0260    6.3880 O.2     8  ASN8       -0.2864
    122 CB          3.4780   31.3550    3.9910 C.3     8  ASN8        0.1181
    123 CG          2.1570   30.6930    3.6510 C.2     8  ASN8        0.2629
    124 OD1         1.3670   30.3650    4.5370 O.2     8  ASN8       -0.2716
    125 ND2         1.9030   30.4930    2.3670 N.am    8  ASN8       -0.0877
    126 N           6.1640   34.0150    8.2550 N.3     1  THR1       -0.1203
    127 CA          6.3480   34.1240    9.7040 C.3     1  THR1        0.1994
    128 C           6.3860   32.7630   10.3850 C.2     1  THR1        0.2617
    129 O           6.8820   32.6810   11.5110 O.2     1  THR1       -0.2717
    130 CB          5.2490   34.9860   10.3560 C.3     1  THR1        0.1784
    131 OG1         3.9530   34.5050    9.9760 O.3     1  THR1       -0.2211
    132 CG2         5.3570   36.4280    9.8760 C.3     1  THR1        0.0376
    133 N           5.8910   31.7150    9.7330 N.am    2  ARG2       -0.1979
    134 CA          5.8940   30.3600   10.2670 C.3     2  ARG2        0.1597
    135 C           6.7570   29.4070    9.4470 C.2     2  ARG2        0.2287
    136 O           6.5890   28.1890    9.5700 O.2     2  ARG2       -0.2864
    137 CB          4.4820   29.7560   10.3490 C.3     2  ARG2        0.0334
    138 CG          3.3520   30.7460   10.1520 C.3     2  ARG2        0.0492
    139 CD          1.9870   30.1680   10.4580 C.3     2  ARG2        0.2205
    140 NE          1.3030   30.9110   11.5130 N.pl3   2  ARG2       -0.0865
    141 CZ          1.0190   32.2030   11.4710 C.cat   2  ARG2        0.5346
    142 NH1         1.3430   32.9510   10.4230 N.pl3   2  ARG2        0.1354
    143 NH2         0.3930   32.7760   12.4900 N.pl3   2  ARG2        0.1354
    144 N         -10.0500   31.1800   -3.9940 N.3     1  TYR1       -0.1227
    145 CA        -10.3680   31.9050   -2.7810 C.3     1  TYR1        0.1736
    146 C         -11.7900   32.4640   -2.8320 C.2     1  TYR1        0.2595
    147 O         -11.9840   33.5050   -3.4760 O.2     1  TYR1       -0.2718
    148 CB         -9.4230   33.0850   -2.5630 C.3     1  TYR1        0.0548
    149 CG         -7.9970   32.8310   -2.1740 C.ar    1  TYR1       -0.0200
    150 CD1        -7.0550   32.4020   -3.1020 C.ar    1  TYR1       -0.0009
    151 CD2        -7.5570   33.0300   -0.8660 C.ar    1  TYR1       -0.0009
    152 CE1        -5.7380   32.1700   -2.7530 C.ar    1  TYR1        0.0417
    153 CE2        -6.2420   32.8010   -0.5050 C.ar    1  TYR1        0.0417
    154 CZ         -5.3370   32.3740   -1.4490 C.ar    1  TYR1        0.1957
    155 OH         -4.0270   32.1440   -1.0960 O.3     1  TYR1       -0.2866
    156 N         -12.7630   31.8590   -2.2000 N.am    2  TYR2       -0.1976
    157 CA        -12.7500   30.5830   -1.5180 C.3     2  TYR2        0.1639
    158 C         -13.8900   29.7150   -2.0650 C.2     2  TYR2        0.2290
    159 O         -14.8700   30.2200   -2.6210 O.2     2  TYR2       -0.2864
    160 CB        -12.9110   30.7240   -0.0130 C.3     2  TYR2        0.0560
    161 CG        -11.8020   31.3030    0.8120 C.ar    2  TYR2       -0.0198
    162 CD2       -12.0570   32.3890    1.6470 C.ar    2  TYR2       -0.0009
    163 CD1       -10.5040   30.8070    0.8110 C.ar    2  TYR2       -0.0009
    164 CE2       -11.0730   32.9600    2.4310 C.ar    2  TYR2        0.0417
    165 CE1        -9.5080   31.3700    1.5940 C.ar    2  TYR2        0.0417
    166 CZ         -9.7890   32.4460    2.4040 C.ar    2  TYR2        0.1957
    167 OH         -8.8170   33.0190    3.1920 O.3     2  TYR2       -0.2866
    168 N          -5.0220   26.3460   -2.0170 N.3     1  ILE1       -0.1231
    169 CA         -4.9340   27.6710   -1.4360 C.3     1  ILE1        0.1692
    170 C          -3.6320   27.7720   -0.6450 C.2     1  ILE1        0.2592
    171 O          -3.5940   27.3480    0.5090 O.2     1  ILE1       -0.2718
    172 CB         -6.1200   27.9680   -0.5020 C.3     1  ILE1        0.0266
    173 CG1        -7.4880   27.4560   -0.9870 C.3     1  ILE1        0.0019
    174 CG2        -6.2290   29.4530   -0.2080 C.3     1  ILE1        0.0020
    175 CD1        -8.6380   27.9060   -0.1010 C.3     1  ILE1        0.0001
    176 N          -2.5900   28.3100   -1.2680 N.am    2  PHE2       -0.1962
    177 CA         -1.2810   28.3800   -0.6260 C.3     2  PHE2        0.1771
    178 C          -1.0930   29.6670    0.1680 C.2     2  PHE2        0.2620
    179 O          -0.2270   29.7440    1.0450 O.2     2  PHE2       -0.2715
    180 CB         -0.1790   28.2490   -1.6790 C.3     2  PHE2        0.0574
    181 CG         -0.1850   26.9760   -2.5030 C.ar    2  PHE2       -0.0200
    182 CD1        -0.8290   26.9180   -3.7290 C.ar    2  PHE2       -0.0042
    183 CD2         0.4620   25.8350   -2.0580 C.ar    2  PHE2       -0.0042
    184 CE1        -0.8350   25.7680   -4.5030 C.ar    2  PHE2       -0.0003
    185 CE2         0.4650   24.6710   -2.8130 C.ar    2  PHE2       -0.0003
    186 CZ         -0.1810   24.6350   -4.0330 C.ar    2  PHE2       -0.0000
    187 N          -1.8670   30.7210   -0.0850 N.am    3  GLY3       -0.1940
    188 CA         -1.7050   31.9470    0.6860 C.3     3  GLY3        0.2014
    189 C          -0.6720   32.8920    0.1060 C.2     3  GLY3        0.2640
    190 O           0.1160   33.5160    0.8270 O.2     3  GLY3       -0.2714
    191 N          -0.6480   33.0480   -1.2220 N.am    4  SER4       -0.1935
    192 CA          0.2310   34.0510   -1.8180 C.3     4  SER4        0.2055
    193 C          -0.2740   34.4410   -3.2040 C.2     4  SER4        0.2643
    194 O           0.0980   33.8250   -4.2070 O.2     4  SER4       -0.2714
    195 CB          1.6780   33.5510   -1.9040 C.3     4  SER4        0.2130
    196 OG          2.5010   34.6350   -2.2930 O.3     4  SER4       -0.2179
    197 N          -1.1370   35.4600   -3.2420 N.am    5  ALA5       -0.1963
    198 CA         -1.8000   35.8130   -4.4880 C.3     5  ALA5        0.1728
    199 C          -0.8310   36.0740   -5.6360 C.2     5  ALA5        0.2616
    200 O          -1.1240   35.6400   -6.7620 O.2     5  ALA5       -0.2715
    201 CB         -2.7110   37.0100   -4.2760 C.3     5  ALA5        0.0334
    202 N           0.3000   36.7530   -5.4420 N.am    6  ALA6       -0.1977
    203 CA          1.1800   36.9650   -6.5950 C.3     6  ALA6        0.1597
    204 C           1.7590   35.6670   -7.1540 C.2     6  ALA6        0.2287
    205 O           1.7860   35.4820   -8.3680 O.2     6  ALA6       -0.2864
    206 CB          2.3450   37.8780   -6.2380 C.3     6  ALA6        0.0319
    207 N           0.7300   32.5780   -6.6150 N.3     1  GLU1       -0.1245
    208 CA         -0.2610   31.6060   -7.0940 C.3     1  GLU1        0.1565
    209 C          -0.6360   31.9520   -8.5250 C.2     1  GLU1        0.2260
    210 O          -0.8150   31.0670   -9.3670 O.2     1  GLU1       -0.2867
    211 CB         -1.4350   31.5590   -6.1200 C.3     1  GLU1        0.0329
    212 CG         -1.0360   30.8720   -4.8120 C.3     1  GLU1        0.0437
    213 CD         -2.0920   30.9910   -3.7340 C.2     1  GLU1        0.0504
    214 OE2        -2.0780   31.9900   -2.9860 O.co2   1  GLU1       -0.5492
    215 OE1        -2.9460   30.0890   -3.6160 O.co2   1  GLU1       -0.5492
    216 N          -7.0150   30.2130  -11.6520 N.3     1  PHE1       -0.1241
    217 CA         -6.7980   30.9380  -10.4120 C.3     1  PHE1        0.1605
    218 C          -8.0660   31.7500  -10.1690 C.2     1  PHE1        0.2264
    219 O          -8.5390   32.4040  -11.0990 O.2     1  PHE1       -0.2867
    220 CB         -5.5710   31.8500  -10.4590 C.3     1  PHE1        0.0534
    221 CG         -5.4490   32.8270   -9.3060 C.ar    1  PHE1       -0.0203
    222 CD2        -4.7930   32.4280   -8.1490 C.ar    1  PHE1       -0.0042
    223 CD1        -5.9460   34.1160   -9.3390 C.ar    1  PHE1       -0.0042
    224 CE2        -4.6630   33.2780   -7.0650 C.ar    1  PHE1       -0.0003
    225 CE1        -5.8410   34.9770   -8.2610 C.ar    1  PHE1       -0.0003
    226 CZ         -5.1860   34.5560   -7.1170 C.ar    1  PHE1       -0.0000
    227 N          -9.9900   34.3910   -7.2450 N.3     1  ASP1       -0.1241
    228 CA        -10.2620   35.1380   -6.0250 C.3     1  ASP1        0.1616
    229 C         -11.6300   35.7970   -6.1830 C.2     1  ASP1        0.2264
    230 O         -11.7930   36.9220   -6.6400 O.2     1  ASP1       -0.2867
    231 CB         -9.2050   36.1870   -5.7010 C.3     1  ASP1        0.0687
    232 CG         -9.2430   36.6030   -4.2420 C.2     1  ASP1        0.0522
    233 OD2       -10.3270   36.5430   -3.6210 O.co2   1  ASP1       -0.5491
    234 OD1        -8.1760   36.9910   -3.7180 O.co2   1  ASP1       -0.5491
    235 N         -13.9690   36.1260   -3.7600 N.3     1  ARG1       -0.1245
    236 CA        -14.5690   36.4220   -2.4600 C.3     1  ARG1        0.1563
    237 C         -15.3940   37.6990   -2.5540 C.2     1  ARG1        0.2260
    238 O         -14.9180   38.7210   -3.0500 O.2     1  ARG1       -0.2867
    239 CB        -13.4790   36.5250   -1.3940 C.3     1  ARG1        0.0307
    240 CG        -12.6350   35.2550   -1.2920 C.3     1  ARG1        0.0489
    241 CD        -11.4730   35.5170   -0.3350 C.3     1  ARG1        0.2205
    242 NE        -10.4180   36.2660   -1.0310 N.pl3   1  ARG1       -0.0865
    243 CZ         -9.4140   36.8190   -0.3570 C.cat   1  ARG1        0.5346
    244 NH2        -9.3920   36.6760    0.9630 N.pl3   1  ARG1        0.1354
    245 NH1        -8.4630   37.4930   -0.9850 N.pl3   1  ARG1        0.1354
    246 N         -11.1320   41.4780   -1.8470 N.3     1  MET1       -0.1230
    247 CA        -10.1000   41.8450   -0.8770 C.3     1  MET1        0.1702
    248 C          -8.7480   42.0860   -1.5050 C.2     1  MET1        0.2592
    249 O          -7.9160   42.7600   -0.8980 O.2     1  MET1       -0.2718
    250 CB        -10.0480   40.7530    0.2070 C.3     1  MET1        0.0401
    251 CG        -11.0530   41.0430    1.3250 C.3     1  MET1        0.0596
    252 SD        -11.9700   39.5740    1.8240 S.3     1  MET1       -0.1393
    253 CE        -10.9020   38.9290    3.1110 C.3     1  MET1        0.0692
    254 N          -8.4660   41.5880   -2.7100 N.am    2  LEU2       -0.1966
    255 CA         -7.1160   41.7920   -3.2400 C.3     2  LEU2        0.1728
    256 C          -6.8320   43.2610   -3.5580 C.2     2  LEU2        0.2616
    257 O          -7.6980   43.9940   -4.0360 O.2     2  LEU2       -0.2715
    258 CB         -6.8790   40.9330   -4.4880 C.3     2  LEU2        0.0311
    259 CG         -6.7510   39.4280   -4.2080 C.3     2  LEU2        0.0022
    260 CD1        -6.4430   38.6650   -5.4870 C.3     2  LEU2        0.0001
    261 CD2        -5.6880   39.1830   -3.1480 C.3     2  LEU2        0.0001
    262 N          -5.5940   43.6570   -3.2820 N.am    3  ARG3       -0.1977
    263 CA         -5.0680   44.9890   -3.5420 C.3     3  ARG3        0.1597
    264 C          -4.2640   45.0040   -4.8350 C.2     3  ARG3        0.2287
    265 O          -3.8890   43.9610   -5.3900 O.2     3  ARG3       -0.2864
    266 CB         -4.2270   45.4450   -2.3430 C.3     3  ARG3        0.0334
    267 CG         -4.8720   45.1000   -1.0020 C.3     3  ARG3        0.0492
    268 CD         -6.1260   45.9220   -0.7640 C.3     3  ARG3        0.2205
    269 NE         -7.0350   45.3310    0.2130 N.pl3   3  ARG3       -0.0865
    270 CZ         -7.3810   45.8620    1.3750 C.cat   3  ARG3        0.5346
    271 NH2        -8.2180   45.2320    2.1860 N.pl3   3  ARG3        0.1354
    272 NH1        -6.9020   47.0380    1.7650 N.pl3   3  ARG3        0.1354
    273 N          -1.2530   45.7550   -5.6000 N.3     1  TYR1       -0.1227
    274 CA          0.1030   45.2150   -5.5780 C.3     1  TYR1        0.1736
    275 C           0.1330   43.7290   -5.2920 C.2     1  TYR1        0.2595
    276 O           1.1240   43.0460   -5.5900 O.2     1  TYR1       -0.2718
    277 CB          0.9250   45.9780   -4.5280 C.3     1  TYR1        0.0548
    278 CG          0.0910   46.2450   -3.2910 C.ar    1  TYR1       -0.0200
    279 CD2         0.0300   45.3050   -2.2720 C.ar    1  TYR1       -0.0009
    280 CD1        -0.6300   47.4210   -3.1480 C.ar    1  TYR1       -0.0009
    281 CE2        -0.7220   45.5190   -1.1350 C.ar    1  TYR1        0.0417
    282 CE1        -1.3870   47.6450   -2.0100 C.ar    1  TYR1        0.0417
    283 CZ         -1.4310   46.6970   -1.0090 C.ar    1  TYR1        0.1957
    284 OH         -2.1840   46.9170    0.1240 O.3     1  TYR1       -0.2866
    285 N          -0.9270   43.1640   -4.7030 N.am    2  ASP2       -0.1976
    286 CA         -0.8560   41.7070   -4.5340 C.3     2  ASP2        0.1651
    287 C          -1.1320   41.0280   -5.8760 C.2     2  ASP2        0.2291
    288 O          -0.7840   39.8690   -6.1130 O.2     2  ASP2       -0.2864
    289 CB         -1.8280   41.1660   -3.4960 C.3     2  ASP2        0.0714
    290 CG         -2.0900   42.0660   -2.3180 C.2     2  ASP2        0.0525
    291 OD2        -1.1720   42.2260   -1.4880 O.co2   2  ASP2       -0.5491
    292 OD1        -3.2020   42.6280   -2.2100 O.co2   2  ASP2       -0.5491
@<TRIPOS>UNITY_ATOM_ATTR
7 1
charge -1
45 1
charge -1
54 1
charge -1
63 1
charge -1
71 1
charge -1
94 1
charge -1
214 1
charge -1
233 1
charge -1
291 1
charge -1
@<TRIPOS>BOND
     1     1     2    1
     2     2     5    1
     3     2     3    1
     4     3     4    2
     5     5     6    1
     6     6     8   ar
     7     6     7   ar
     8     9    10    1
     9    10    13    1
    10    10    11    1
    11    11    12    2
    12    11    16   am
    13    13    14    1
    14    13    15    1
    15    16    17    1
    16    16    22    1
    17    17    18    1
    18    17    20    1
    19    18    19    2
    20    18    23   am
    21    20    21    1
    22    21    22    1
    23    23    24    1
    24    24    27    1
    25    24    25    1
    26    25    30   am
    27    25    26    2
    28    27    28    1
    29    27    29    1
    30    30    31    1
    31    31    32    1
    32    31    34    1
    33    32    33    2
    34    34    35    1
    35    35    36    1
    36    36    37    1
    37    37    38    1
    38    39    40    1
    39    40    43    1
    40    40    41    1
    41    41    42    2
    42    43    44    1
    43    44    45   ar
    44    44    46   ar
    45    47    48    1
    46    48    51    1
    47    48    49    1
    48    49    50    2
    49    49    56   am
    50    51    52    1
    51    52    53    1
    52    53    54   ar
    53    53    55   ar
    54    56    57    1
    55    57    58    1
    56    57    60    1
    57    58    59    2
    58    60    61    1
    59    61    62    1
    60    62    64   ar
    61    62    63   ar
    62    65    66    1
    63    66    69    1
    64    66    67    1
    65    67    68    2
    66    67    73   am
    67    69    70    1
    68    70    72   ar
    69    70    71   ar
    70    73    74    1
    71    73    79    1
    72    74    75    1
    73    74    77    1
    74    75    80   am
    75    75    76    2
    76    77    78    1
    77    78    79    1
    78    80    81    1
    79    81    82    1
    80    81    84    1
    81    82    88   am
    82    82    83    2
    83    84    85    1
    84    85    86    1
    85    85    87    1
    86    88    89    1
    87    89    92    1
    88    89    90    1
    89    90    91    2
    90    90    96   am
    91    92    93    1
    92    93    94   ar
    93    93    95   ar
    94    96    97    1
    95    97    98    1
    96    98    99    2
    97    98   100   am
    98   100   101    1
    99   101   104    1
   100   101   102    1
   101   102   107   am
   102   102   103    2
   103   104   105    1
   104   104   106    1
   105   107   108    1
   106   108   111    1
   107   108   109    1
   108   109   118   am
   109   109   110    2
   110   111   112    1
   111   112   114   ar
   112   112   113   ar
   113   113   115   ar
   114   114   116   ar
   115   115   117   ar
   116   116   117   ar
   117   118   119    1
   118   119   122    1
   119   119   120    1
   120   120   121    2
   121   122   123    1
   122   123   125   am
   123   123   124    2
   124   126   127    1
   125   127   130    1
   126   127   128    1
   127   128   133   am
   128   128   129    2
   129   130   132    1
   130   130   131    1
   131   133   134    1
   132   134   135    1
   133   134   137    1
   134   135   136    2
   135   137   138    1
   136   138   139    1
   137   139   140    1
   138   140   141    2
   139   141   142    1
   140   141   143    1
   141   144   145    1
   142   145   146    1
   143   145   148    1
   144   146   147    2
   145   146   156   am
   146   148   149    1
   147   149   150   ar
   148   149   151   ar
   149   150   152   ar
   150   151   153   ar
   151   152   154   ar
   152   153   154   ar
   153   154   155    1
   154   156   157    1
   155   157   158    1
   156   157   160    1
   157   158   159    2
   158   160   161    1
   159   161   163   ar
   160   161   162   ar
   161   162   164   ar
   162   163   165   ar
   163   164   166   ar
   164   165   166   ar
   165   166   167    1
   166   168   169    1
   167   169   170    1
   168   169   172    1
   169   170   176   am
   170   170   171    2
   171   172   173    1
   172   172   174    1
   173   173   175    1
   174   176   177    1
   175   177   180    1
   176   177   178    1
   177   178   187   am
   178   178   179    2
   179   180   181    1
   180   181   182   ar
   181   181   183   ar
   182   182   184   ar
   183   183   185   ar
   184   184   186   ar
   185   185   186   ar
   186   187   188    1
   187   188   189    1
   188   189   191   am
   189   189   190    2
   190   191   192    1
   191   192   193    1
   192   192   195    1
   193   193   194    2
   194   193   197   am
   195   195   196    1
   196   197   198    1
   197   198   199    1
   198   198   201    1
   199   199   200    2
   200   199   202   am
   201   202   203    1
   202   203   204    1
   203   203   206    1
   204   204   205    2
   205   207   208    1
   206   208   209    1
   207   208   211    1
   208   209   210    2
   209   211   212    1
   210   212   213    1
   211   213   215   ar
   212   213   214   ar
   213   216   217    1
   214   217   220    1
   215   217   218    1
   216   218   219    2
   217   220   221    1
   218   221   223   ar
   219   221   222   ar
   220   222   224   ar
   221   223   225   ar
   222   224   226   ar
   223   225   226   ar
   224   227   228    1
   225   228   229    1
   226   228   231    1
   227   229   230    2
   228   231   232    1
   229   232   234   ar
   230   232   233   ar
   231   235   236    1
   232   236   237    1
   233   236   239    1
   234   237   238    2
   235   239   240    1
   236   240   241    1
   237   241   242    1
   238   242   243    2
   239   243   245    1
   240   243   244    1
   241   246   247    1
   242   247   248    1
   243   247   250    1
   244   248   254   am
   245   248   249    2
   246   250   251    1
   247   251   252    1
   248   252   253    1
   249   254   255    1
   250   255   258    1
   251   255   256    1
   252   256   257    2
   253   256   262   am
   254   258   259    1
   255   259   260    1
   256   259   261    1
   257   262   263    1
   258   263   264    1
   259   263   266    1
   260   264   265    2
   261   266   267    1
   262   267   268    1
   263   268   269    1
   264   269   270    2
   265   270   272    1
   266   270   271    1
   267   273   274    1
   268   274   275    1
   269   274   277    1
   270   275   276    2
   271   275   285   am
   272   277   278    1
   273   278   280   ar
   274   278   279   ar
   275   279   281   ar
   276   280   282   ar
   277   281   283   ar
   278   282   283   ar
   279   283   284    1
   280   285   286    1
   281   286   287    1
   282   286   289    1
   283   287   288    2
   284   289   290    1
   285   290   292   ar
   286   290   291   ar
