@<TRIPOS>MOLECULE
./7est/protein.pdb
 115 112 0 0 0
SMALL
GASTEIGER

@<TRIPOS>ATOM
      1 N           3.8460   46.0610   -4.2200 N.3     1  HIS1       -0.1241
      2 CA          4.4860   46.1290   -2.9190 C.3     1  HIS1        0.1618
      3 C           3.8150   46.8370   -1.7490 C.2     1  HIS1        0.2264
      4 O           4.0800   46.4550   -0.6050 O.2     1  HIS1       -0.2867
      5 CB          5.9490   46.5890   -3.1330 C.3     1  HIS1        0.0704
      6 CG          6.5680   47.9070   -2.6250 C.2     1  HIS1        0.0649
      7 ND1         7.1860   48.8250   -3.3620 N.2     1  HIS1       -0.2310
      8 CD2         6.8640   48.2150   -1.3180 C.3     1  HIS1        0.1683
      9 CE1         7.8490   49.6230   -2.5770 C.2     1  HIS1        0.1939
     10 NE2         7.6570   49.2460   -1.3470 N.2     1  HIS1       -0.2440
     11 N          12.0330   42.6690   -6.0080 N.3     1  VAL1       -0.1245
     12 CA         11.7370   44.0160   -6.5380 C.3     1  VAL1        0.1561
     13 C          12.4750   44.3130   -7.8380 C.2     1  VAL1        0.2260
     14 O          11.9960   45.0130   -8.7370 O.2     1  VAL1       -0.2867
     15 CB         12.0800   45.2170   -5.6310 C.3     1  VAL1        0.0252
     16 CG1        10.8500   46.0870   -5.5060 C.3     1  VAL1        0.0019
     17 CG2        12.7080   44.8970   -4.2960 C.3     1  VAL1        0.0019
     18 N          14.0910   59.2080   -2.2280 N.3     1  CYS1       -0.1210
     19 CA         13.0060   58.6180   -1.4620 C.3     1  CYS1        0.1956
     20 C          13.5030   57.8480   -0.2490 C.2     1  CYS1        0.2612
     21 O          14.7130   57.7010   -0.0280 O.2     1  CYS1       -0.2717
     22 N          12.5550   57.3430    0.5240 N.am    2  CYS2       -0.1956
     23 CA         12.8600   56.5230    1.6860 C.3     2  CYS2        0.1843
     24 C          11.5310   55.8720    2.0660 C.2     2  CYS2        0.2625
     25 O          10.4610   56.1830    1.5230 O.2     2  CYS2       -0.2714
     26 CB         13.4130   57.3740    2.8390 C.3     2  CYS2        0.0997
     27 SG         14.4710   56.6790    4.1580 S.3     2  CYS2       -0.0797
     28 N          11.5700   55.0110    3.0580 N.am    3  GLN3       -0.1963
     29 CA         10.4420   54.1980    3.4760 C.3     3  GLN3        0.1733
     30 C           9.1620   54.9560    3.8000 C.2     3  GLN3        0.2617
     31 O           9.1750   55.8900    4.6020 O.2     3  GLN3       -0.2715
     32 CB         10.8710   53.3960    4.6830 C.3     3  GLN3        0.0408
     33 CG         12.0000   52.4110    4.3420 C.3     3  GLN3        0.0908
     34 CD         13.4030   52.8410    4.7460 C.2     3  GLN3        0.2608
     35 OE1        13.7900   54.0060    4.7310 O.2     3  GLN3       -0.2717
     36 NE2        14.2180   51.9350    5.2520 N.am    3  GLN3       -0.0878
     37 N           8.0470   54.5800    3.1740 N.am    4  GLY4       -0.1940
     38 CA          6.7750   55.2740    3.3200 C.3     4  GLY4        0.2014
     39 C           6.4630   56.2090    2.1470 C.2     4  GLY4        0.2639
     40 O           5.3780   56.8060    2.0630 O.2     4  GLY4       -0.2714
     41 N           7.4180   56.4540    1.2500 N.am    5  ASP5       -0.1959
     42 CA          7.1430   57.2170    0.0480 C.3     5  ASP5        0.1783
     43 C           6.7380   56.2750   -1.0780 C.2     5  ASP5        0.2620
     44 O           6.1770   56.7130   -2.0900 O.2     5  ASP5       -0.2715
     45 CB          8.3680   57.9750   -0.4200 C.3     5  ASP5        0.0728
     46 CG          8.9700   58.9840    0.5350 C.2     5  ASP5        0.0526
     47 OD2         8.2840   59.9000    0.9790 O.co2   5  ASP5       -0.5491
     48 OD1        10.1490   58.8670    0.8270 O.co2   5  ASP5       -0.5491
     49 N           7.0200   54.9720   -0.8860 N.am    6  SER6       -0.1950
     50 CA          6.7490   53.9200   -1.8550 C.3     6  SER6        0.1924
     51 CB          5.3560   53.9800   -2.4470 C.2     6  SER6        0.2314
     52 OG          4.4160   54.4130   -1.7740 O.2     6  SER6       -0.2863
     53 C           7.0090   52.5790   -1.1890 C.3     6  SER6        0.2116
     54 O           6.4440   52.4150    0.1130 O.3     6  SER6       -0.2180
     55 N           7.3310   55.0820   -6.8960 N.3     1  THR1       -0.1203
     56 CA          8.4550   54.7520   -6.0180 C.3     1  THR1        0.1994
     57 C           8.5890   53.2990   -5.5500 C.2     1  THR1        0.2619
     58 O           7.7060   52.7320   -4.8730 O.2     1  THR1       -0.2717
     59 CB          8.4530   55.6410   -4.7710 C.3     1  THR1        0.1784
     60 OG1         8.0250   56.9160   -5.2170 O.3     1  THR1       -0.2211
     61 CG2         9.8400   55.7090   -4.1080 C.3     1  THR1        0.0376
     62 N           9.7380   52.6980   -5.8770 N.am    2  SER2       -0.1937
     63 CA          9.9620   51.2900   -5.6120 C.3     2  SER2        0.2055
     64 C          11.0030   51.0740   -4.5280 C.2     2  SER2        0.2643
     65 O          10.6090   50.5610   -3.4710 O.2     2  SER2       -0.2714
     66 CB         10.3490   50.5460   -6.9090 C.3     2  SER2        0.2130
     67 OG         10.3450   49.1190   -6.7790 O.3     2  SER2       -0.2179
     68 N          12.2870   51.4140   -4.7270 N.am    3  PHE3       -0.1959
     69 CA         13.3400   50.9830   -3.8140 C.3     3  PHE3        0.1771
     70 C          14.5370   51.9110   -3.7050 C.2     3  PHE3        0.2619
     71 O          14.8280   52.7240   -4.5820 O.2     3  PHE3       -0.2715
     72 CB         13.7820   49.4920   -4.0250 C.3     3  PHE3        0.0574
     73 CG         14.3110   49.0980   -5.4010 C.ar    3  PHE3       -0.0200
     74 CD1        13.4450   48.7870   -6.4320 C.ar    3  PHE3       -0.0042
     75 CD2        15.6740   48.9890   -5.6000 C.ar    3  PHE3       -0.0042
     76 CE1        13.9540   48.3820   -7.6520 C.ar    3  PHE3       -0.0003
     77 CE2        16.1850   48.5880   -6.8200 C.ar    3  PHE3       -0.0003
     78 CZ         15.3230   48.2880   -7.8570 C.ar    3  PHE3       -0.0000
     79 N          15.1470   51.7860   -2.5360 N.am    4  VAL4       -0.1963
     80 CA         16.4180   52.3970   -2.1790 C.3     4  VAL4        0.1727
     81 C          17.3680   51.2520   -1.8270 C.2     4  VAL4        0.2617
     82 O          16.9460   50.0920   -1.7580 O.2     4  VAL4       -0.2715
     83 CB         16.3580   53.3850   -0.9840 C.3     4  VAL4        0.0290
     84 CG1        16.5920   54.7660   -1.5440 C.3     4  VAL4        0.0023
     85 CG2        15.1120   53.2830   -0.1180 C.3     4  VAL4        0.0023
     86 N          18.6590   51.5130   -1.6540 N.am    5  SER5       -0.1936
     87 CA         19.5890   50.4760   -1.2880 C.3     5  SER5        0.2055
     88 C          19.2150   49.8640    0.0510 C.2     5  SER5        0.2642
     89 O          18.6860   50.5480    0.9360 O.2     5  SER5       -0.2714
     90 CB         20.9780   51.0460   -1.1880 C.3     5  SER5        0.2130
     91 OG         21.1440   51.8770   -0.0500 O.3     5  SER5       -0.2179
     92 N          19.5850   48.5950    0.2540 N.am    6  ARG6       -0.1977
     93 CA         19.4750   47.9330    1.5550 C.3     6  ARG6        0.1597
     94 C          20.1600   48.7490    2.6600 C.2     6  ARG6        0.2287
     95 O          19.8160   48.6300    3.8330 O.2     6  ARG6       -0.2864
     96 CB         20.1400   46.5470    1.4620 C.3     6  ARG6        0.0334
     97 CG         19.8140   45.5010    2.5440 C.3     6  ARG6        0.0492
     98 CD         20.7060   44.2350    2.4950 C.3     6  ARG6        0.2205
     99 NE         21.8990   44.3150    3.3470 N.pl3   6  ARG6       -0.0865
    100 CZ         23.1550   44.4600    2.8870 C.cat   6  ARG6        0.5346
    101 NH2        24.1390   44.7080    3.7490 N.pl3   6  ARG6        0.1354
    102 NH1        23.4630   44.3360    1.5970 N.pl3   6  ARG6        0.1354
    103 N          18.7070   55.3240    2.6290 N.3     1  CYS1       -0.1235
    104 CA         17.9500   56.0170    1.6110 C.3     1  CYS1        0.1677
    105 C          18.7670   56.9310    0.7010 C.2     1  CYS1        0.2270
    106 O          18.8980   56.7440   -0.5180 O.2     1  CYS1       -0.2867
    107 CB         16.8560   56.7300    2.3410 C.3     1  CYS1        0.0956
    108 SG         15.8520   55.5260    3.2420 S.3     1  CYS1       -0.0801
    109 N          17.1510   56.6450   -6.3480 N.3     1  THR1       -0.1218
    110 CA         15.8970   56.0250   -5.9580 C.3     1  THR1        0.1862
    111 C          15.3660   55.3620   -7.2290 C.2     1  THR1        0.2287
    112 O          15.4980   55.9460   -8.3220 O.2     1  THR1       -0.2866
    113 CB         14.9520   57.1210   -5.5110 C.3     1  THR1        0.1770
    114 OG1        15.5760   57.7550   -4.3960 O.3     1  THR1       -0.2211
    115 CG2        13.5650   56.5900   -5.1960 C.3     1  THR1        0.0375
@<TRIPOS>UNITY_ATOM_ATTR
47 1
charge -1
@<TRIPOS>BOND
     1     1     2    1
     2     2     5    1
     3     2     3    1
     4     3     4    2
     5     5     6    1
     6     6     7    2
     7     6     8    1
     8     7     9    1
     9     8    10    1
    10     9    10    2
    11    11    12    1
    12    12    13    1
    13    12    15    1
    14    13    14    2
    15    15    16    1
    16    15    17    1
    17    18    19    1
    18    19    20    1
    19    20    21    2
    20    20    22   am
    21    22    23    1
    22    23    24    1
    23    23    26    1
    24    24    25    2
    25    24    28   am
    26    26    27    1
    27    27   108    1
    28    28    29    1
    29    29    30    1
    30    29    32    1
    31    30    37   am
    32    30    31    2
    33    32    33    1
    34    33    34    1
    35    34    35    2
    36    34    36   am
    37    37    38    1
    38    38    39    1
    39    39    41   am
    40    39    40    2
    41    41    42    1
    42    42    43    1
    43    42    45    1
    44    43    44    2
    45    43    49   am
    46    45    46    1
    47    46    48   ar
    48    46    47   ar
    49    49    50    1
    50    50    51    1
    51    50    53    1
    52    51    52    2
    53    53    54    1
    54    55    56    1
    55    56    57    1
    56    56    59    1
    57    57    62   am
    58    57    58    2
    59    59    60    1
    60    59    61    1
    61    62    63    1
    62    63    66    1
    63    63    64    1
    64    64    68   am
    65    64    65    2
    66    66    67    1
    67    68    69    1
    68    69    72    1
    69    69    70    1
    70    70    71    2
    71    70    79   am
    72    72    73    1
    73    73    74   ar
    74    73    75   ar
    75    74    76   ar
    76    75    77   ar
    77    76    78   ar
    78    77    78   ar
    79    79    80    1
    80    80    81    1
    81    80    83    1
    82    81    82    2
    83    81    86   am
    84    83    84    1
    85    83    85    1
    86    86    87    1
    87    87    90    1
    88    87    88    1
    89    88    92   am
    90    88    89    2
    91    90    91    1
    92    92    93    1
    93    93    96    1
    94    93    94    1
    95    94    95    2
    96    96    97    1
    97    97    98    1
    98    98    99    1
    99    99   100    2
   100   100   102    1
   101   100   101    1
   102   103   104    1
   103   104   105    1
   104   104   107    1
   105   105   106    2
   106   107   108    1
   107   109   110    1
   108   110   111    1
   109   110   113    1
   110   111   112    2
   111   113   115    1
   112   113   114    1
