@<TRIPOS>MOLECULE
./2ate/protein.pdb
 174 169 0 0 0
SMALL
GASTEIGER

@<TRIPOS>ATOM
      1 N          11.8330  -22.3430  -13.3520 N.3     1  UNK1        0.0000
      2 C          11.6320  -20.9130  -13.3060 C.3     1  UNK1        0.0000
      3 C          12.9790  -20.2130  -13.2690 C.2     1  UNK1        0.0000
      4 O          13.9890  -20.7760  -12.8340 O.2     1  UNK1        0.0000
      5 C          10.7790  -20.5410  -12.0880 C.3     1  UNK1        0.0000
      6 C          11.5580  -20.7880  -10.7640 C.3     1  UNK1        0.0000
      7 SE         10.3410  -21.2160   -9.2640 Se      1  UNK1        0.0000
      8 C           9.9160  -22.9910   -9.8360 C.3     1  UNK1        0.0000
      9 N          12.9910  -18.9870  -13.7790 N.am    2  GLY2        0.0000
     10 CA         14.2180  -18.2110  -13.9000 C.3     2  GLY2        0.0000
     11 C          14.8640  -17.7530  -12.6210 C.2     2  GLY2        0.0000
     12 O          16.0770  -17.5540  -12.5890 O.2     2  GLY2        0.0000
     13 N          14.0570  -17.6040  -11.5770 N.am    3  SER3        0.0000
     14 CA         14.5580  -17.1640  -10.2720 C.3     3  SER3        0.0000
     15 C          13.7220  -17.7340   -9.1350 C.2     3  SER3        0.0000
     16 O          12.5420  -18.0420   -9.3100 O.2     3  SER3        0.0000
     17 CB         14.6180  -15.6270  -10.2010 C.3     3  SER3        0.0000
     18 OG         14.9020  -15.1770   -8.8890 O.3     3  SER3        0.0000
     19 N          12.6960  -15.9590   -6.8580 N.3     1  SER1        0.0000
     20 CA         11.6520  -14.9640   -6.6540 C.3     1  SER1        0.0000
     21 C          10.3660  -15.2270   -7.4660 C.2     1  SER1        0.0000
     22 O           9.3120  -14.6820   -7.1370 O.2     1  SER1        0.0000
     23 CB         12.1760  -13.5490   -6.8760 C.3     1  SER1        0.0000
     24 OG         12.3850  -13.2400   -8.2350 O.3     1  SER1        0.0000
     25 N          10.4550  -16.1150   -8.4590 N.am    2  ASP2        0.0000
     26 CA          9.3170  -16.5250   -9.2620 C.3     2  ASP2        0.0000
     27 C           8.4550  -17.5650   -8.5060 C.2     2  ASP2        0.0000
     28 O           7.3340  -17.8110   -8.9270 O.2     2  ASP2        0.0000
     29 CB          9.7820  -17.1480  -10.5920 C.3     2  ASP2        0.0000
     30 CG         10.4850  -16.1830  -11.5200 C.2     2  ASP2        0.0000
     31 OD2        10.1500  -14.9550  -11.4990 O.co2   2  ASP2       -0.5000
     32 OD1        11.3910  -16.6480  -12.2890 O.co2   2  ASP2       -0.5000
     33 N          16.0110  -22.8580  -12.9560 N.3     1  VAL1        0.0000
     34 CA         16.8590  -22.9960  -14.1250 C.3     1  VAL1        0.0000
     35 C          16.8310  -21.6770  -14.8770 C.2     1  VAL1        0.0000
     36 O          15.7490  -21.2620  -15.3120 O.2     1  VAL1        0.0000
     37 CB         16.3900  -24.1160  -15.1030 C.3     1  VAL1        0.0000
     38 CG1        17.2960  -24.1280  -16.3640 C.3     1  VAL1        0.0000
     39 CG2        16.3760  -25.4860  -14.4290 C.3     1  VAL1        0.0000
     40 N          17.9610  -20.9660  -15.0080 N.am    2  SER2        0.0000
     41 CA         17.9240  -19.6350  -15.6790 C.3     2  SER2        0.0000
     42 C          18.6890  -19.6120  -16.9910 C.2     2  SER2        0.0000
     43 O          19.8640  -19.9340  -17.0130 O.2     2  SER2        0.0000
     44 CB         18.4340  -18.5480  -14.7600 C.3     2  SER2        0.0000
     45 OG         18.6040  -17.3040  -15.4270 O.3     2  SER2        0.0000
     46 N          18.0650  -19.1840  -18.0780 N.am    3  ALA3        0.0000
     47 CA         18.8110  -19.0930  -19.3470 C.3     3  ALA3        0.0000
     48 C          19.9470  -18.0850  -19.2370 C.2     3  ALA3        0.0000
     49 O          20.9590  -18.2040  -19.9010 O.2     3  ALA3        0.0000
     50 CB         17.8890  -18.7140  -20.4990 C.3     3  ALA3        0.0000
     51 N          19.7240  -17.0550  -18.4300 N.am    4  HIS4        0.0000
     52 CA         20.6600  -15.9540  -18.2690 C.3     4  HIS4        0.0000
     53 C          21.7660  -16.2230  -17.2390 C.2     4  HIS4        0.0000
     54 O          22.9360  -15.9350  -17.5320 O.2     4  HIS4        0.0000
     55 CB         19.8770  -14.6880  -17.9350 C.3     4  HIS4        0.0000
     56 CG         18.9320  -14.3010  -19.0250 C.ar    4  HIS4        0.0000
     57 ND1        17.8010  -13.5550  -18.8160 N.ar    4  HIS4        0.0000
     58 CD2        18.9390  -14.6080  -20.3440 C.ar    4  HIS4        0.0000
     59 CE1        17.1840  -13.3620  -19.9700 C.ar    4  HIS4        0.0000
     60 NE2        17.8580  -13.9880  -20.9110 N.ar    4  HIS4        0.0000
     61 N          21.3860  -16.7860  -16.0790 N.am    5  ARG5        0.0000
     62 CA         22.3430  -17.0190  -14.9380 C.3     5  ARG5        0.0000
     63 C          22.9290  -18.4250  -14.9160 C.2     5  ARG5        0.0000
     64 O          24.0270  -18.6490  -14.3620 O.2     5  ARG5        0.0000
     65 CB         21.6640  -16.7450  -13.5890 C.3     5  ARG5        0.0000
     66 CG         21.3170  -15.2750  -13.4310 C.3     5  ARG5        0.0000
     67 CD         20.5280  -14.9780  -12.2160 C.3     5  ARG5        0.0000
     68 NE         20.2110  -13.5270  -12.1380 N.pl3   5  ARG5        0.3300
     69 CZ         19.0870  -13.0520  -11.6340 C.cat   5  ARG5        0.0000
     70 NH2        18.1410  -13.8920  -11.1980 N.pl3   5  ARG5        0.3300
     71 NH1        18.9190  -11.7450  -11.5350 N.pl3   5  ARG5        0.3300
     72 N          20.7540  -24.8720  -18.3130 N.3     1  LEU1        0.0000
     73 CA         19.5830  -24.8520  -19.1720 C.3     1  LEU1        0.0000
     74 C          19.7680  -25.8300  -20.3230 C.2     1  LEU1        0.0000
     75 O          18.8990  -26.6360  -20.6070 O.2     1  LEU1        0.0000
     76 CB         19.2880  -23.4830  -19.7580 C.3     1  LEU1        0.0000
     77 CG         17.9570  -23.3810  -20.5410 C.3     1  LEU1        0.0000
     78 CD2        17.4930  -21.9460  -20.5610 C.3     1  LEU1        0.0000
     79 CD1        17.9340  -23.9720  -21.9520 C.3     1  LEU1        0.0000
     80 N           8.5460  -20.7360  -16.1900 N.3     1  GLY1        0.0000
     81 CA          8.1010  -19.3820  -15.8540 C.3     1  GLY1        0.0000
     82 C           9.2250  -18.4220  -15.6920 C.2     1  GLY1        0.0000
     83 O          10.2590  -18.7810  -15.1540 O.2     1  GLY1        0.0000
     84 N           9.0170  -17.1800  -16.1400 N.am    2  ALA2        0.0000
     85 CA         10.0410  -16.1520  -16.0250 C.3     2  ALA2        0.0000
     86 C           9.4270  -14.7690  -16.2430 C.2     2  ALA2        0.0000
     87 O           8.3470  -14.6500  -16.8080 O.2     2  ALA2        0.0000
     88 CB         11.1550  -16.3910  -16.9830 C.3     2  ALA2        0.0000
     89 N          10.1170  -13.7640  -15.7210 N.am    3  GLY3        0.0000
     90 CA          9.6650  -12.3740  -15.7630 C.3     3  GLY3        0.0000
     91 C          10.6100  -11.4820  -16.5460 C.2     3  GLY3        0.0000
     92 O          11.8270  -11.7340  -16.6060 O.2     3  GLY3        0.0000
     93 N          10.0230  -10.4410  -17.1400 N.am    4  GLY4        0.0000
     94 CA         10.7340   -9.3690  -17.8520 C.3     4  GLY4        0.0000
     95 C          11.0800   -9.8780  -19.2380 C.2     4  GLY4        0.0000
     96 O          10.2150  -10.3800  -19.9650 O.2     4  GLY4        0.0000
     97 N          12.3790   -9.8780  -19.5380 N.am    5  ALA5        0.0000
     98 CA         12.8940  -10.4540  -20.7870 C.3     5  ALA5        0.0000
     99 C          12.9410  -11.9810  -20.5490 C.2     5  ALA5        0.0000
    100 O          13.9470  -12.5410  -20.1120 O.2     5  ALA5        0.0000
    101 CB         14.2600   -9.8770  -21.1780 C.3     5  ALA5        0.0000
    102 N          11.7650  -12.5970  -20.7150 N.am    6  ALA6        0.0000
    103 CA         11.5120  -13.9720  -20.2490 C.3     6  ALA6        0.0000
    104 C          11.9190  -15.0080  -21.3480 C.2     6  ALA6        0.0000
    105 O          11.1010  -15.5510  -22.1380 O.2     6  ALA6        0.0000
    106 CB         10.0460  -14.0940  -19.8190 C.3     6  ALA6        0.0000
    107 N          13.2090  -15.3180  -21.3830 N.am    7  HIS7        0.0000
    108 CA         13.7480  -16.1770  -22.4400 C.3     7  HIS7        0.0000
    109 C          13.6980  -17.6840  -22.1010 C.2     7  HIS7        0.0000
    110 O          13.8180  -18.5460  -22.9970 O.2     7  HIS7        0.0000
    111 CB         15.1860  -15.7840  -22.7490 C.3     7  HIS7        0.0000
    112 CG         15.3690  -14.3590  -23.2200 C.2     7  HIS7        0.0000
    113 ND1        16.6130  -13.8470  -23.5030 N.2     7  HIS7        0.0000
    114 CD2        14.4920  -13.3650  -23.4780 C.3     7  HIS7        0.0000
    115 CE1        16.5040  -12.5980  -23.9110 C.2     7  HIS7        0.0000
    116 NE2        15.2210  -12.2820  -23.9240 N.2     7  HIS7        0.0000
    117 N          13.6080  -17.9910  -20.8140 N.am    8  LEU8        0.0000
    118 CA         13.7140  -19.3900  -20.3310 C.3     8  LEU8        0.0000
    119 C          12.8200  -20.4000  -21.1060 C.2     8  LEU8        0.0000
    120 O          13.3570  -21.4170  -21.6110 O.2     8  LEU8        0.0000
    121 CB         13.4510  -19.4580  -18.8490 C.3     8  LEU8        0.0000
    122 CG         13.3670  -20.8520  -18.1960 C.3     8  LEU8        0.0000
    123 CD1        14.7100  -21.6230  -18.3320 C.3     8  LEU8        0.0000
    124 CD2        12.9440  -20.7070  -16.7350 C.3     8  LEU8        0.0000
    125 N          11.4940  -20.1460  -21.2060 N.am    9  PRO9        0.0000
    126 CA         10.6460  -21.1530  -21.9090 C.3     9  PRO9        0.0000
    127 C          11.0840  -21.4020  -23.3320 C.2     9  PRO9        0.0000
    128 O          11.1990  -22.5560  -23.7840 O.2     9  PRO9        0.0000
    129 CB          9.2220  -20.5380  -21.8300 C.3     9  PRO9        0.0000
    130 CG          9.2900  -19.5680  -20.7280 C.3     9  PRO9        0.0000
    131 CD         10.6680  -19.0110  -20.7520 C.3     9  PRO9        0.0000
    132 N          13.9950  -20.9040  -24.8390 N.3     1  UNL1        0.0000
    133 CA         15.3170  -21.4990  -24.9610 C.3     1  UNL1        0.0000
    134 C          15.3100  -22.9720  -24.6530 C.2     1  UNL1        0.0000
    135 O          16.0560  -23.7270  -25.2780 O.2     1  UNL1        0.0000
    136 C          16.2900  -20.7180  -24.0900 C.3     1  UNL1        0.0000
    137 C          16.4990  -19.2960  -24.5550 C.3     1  UNL1        0.0000
    138 SE         17.1650  -19.3120  -26.4380 Se      1  UNL1        0.0000
    139 C          18.6980  -20.4980  -26.0650 C.3     1  UNL1        0.0000
    140 N           5.5630  -14.2420  -15.6540 N.3     1  VAL1        0.0000
    141 CA          5.5020  -13.7240  -14.2880 C.3     1  VAL1        0.0000
    142 C           5.2310  -12.2200  -14.3660 C.2     1  VAL1        0.0000
    143 O           5.7090  -11.5410  -15.3010 O.2     1  VAL1        0.0000
    144 CB          6.8360  -14.0290  -13.5360 C.3     1  VAL1        0.0000
    145 CG2         6.8910  -13.3260  -12.1820 C.3     1  VAL1        0.0000
    146 CG1         6.9990  -15.4990  -13.3720 C.3     1  VAL1        0.0000
    147 N           4.4370  -11.7150  -13.4190 N.am    2  GLN2        0.0000
    148 CA          4.0590  -10.3250  -13.4090 C.3     2  GLN2        0.0000
    149 C           5.2480   -9.4800  -12.9220 C.2     2  GLN2        0.0000
    150 O           5.5530   -9.4250  -11.7170 O.2     2  GLN2        0.0000
    151 CB          2.7660  -10.0430  -12.5940 C.3     2  GLN2        0.0000
    152 CG          2.3250   -8.5470  -12.7030 C.3     2  GLN2        0.0000
    153 CD          1.1470   -8.1890  -11.8410 C.2     2  GLN2        0.0000
    154 OE1         0.3110   -9.0310  -11.5580 O.2     2  GLN2        0.0000
    155 NE2         1.0660   -6.9080  -11.4340 N.am    2  GLN2        0.0000
    156 N           5.9050   -8.8190  -13.8720 N.am    3  SER3        0.0000
    157 CA          7.0510   -7.9090  -13.6220 C.3     3  SER3        0.0000
    158 C           6.5700   -6.5920  -12.9960 C.2     3  SER3        0.0000
    159 O           5.4000   -6.2630  -13.0920 O.2     3  SER3        0.0000
    160 CB          7.7500   -7.6440  -14.9500 C.3     3  SER3        0.0000
    161 OG          6.7960   -7.1730  -15.9230 O.3     3  SER3        0.0000
    162 N           7.4680   -5.8420  -12.3390 N.am    4  ALA4        0.0000
    163 CA          7.0540   -4.6670  -11.6190 C.3     4  ALA4        0.0000
    164 C           6.6930   -3.5120  -12.5180 C.2     4  ALA4        0.0000
    165 O           5.5440   -3.0590  -12.4600 O.2     4  ALA4        0.0000
    166 CB          8.1210   -4.2660  -10.6180 C.3     4  ALA4        0.0000
    167 N           5.9450   -7.3070  -20.8040 N.3     1  ASP1        0.0000
    168 CA          7.2680   -7.7270  -21.2480 C.3     1  ASP1        0.0000
    169 C           7.4110   -9.2540  -21.1910 C.2     1  ASP1        0.0000
    170 O           7.8450   -9.8580  -22.1470 O.2     1  ASP1        0.0000
    171 CB          8.4240   -7.0110  -20.5270 C.3     1  ASP1        0.0000
    172 CG          8.3060   -6.9660  -19.0520 C.2     1  ASP1        0.0000
    173 OD1         7.3190   -7.4940  -18.4730 O.co2   1  ASP1       -0.5000
    174 OD2         9.2520   -6.3730  -18.4330 O.co2   1  ASP1       -0.5000
@<TRIPOS>UNITY_ATOM_ATTR
31 1
charge -1
173 1
charge -1
@<TRIPOS>BOND
     1     1     2    1
     2     2     3    1
     3     2     5    1
     4     3     9   am
     5     3     4    2
     6     5     6    1
     7     6     7    1
     8     7     8    1
     9     9    10    1
    10    10    11    1
    11    11    12    2
    12    11    13   am
    13    13    14    1
    14    14    17    1
    15    14    15    1
    16    15    16    2
    17    17    18    1
    18    19    20    1
    19    20    21    1
    20    20    23    1
    21    21    25   am
    22    21    22    2
    23    23    24    1
    24    25    26    1
    25    26    29    1
    26    26    27    1
    27    27    28    2
    28    29    30    1
    29    30    32   ar
    30    30    31   ar
    31    33    34    1
    32    34    37    1
    33    34    35    1
    34    35    36    2
    35    35    40   am
    36    37    38    1
    37    37    39    1
    38    40    41    1
    39    41    42    1
    40    41    44    1
    41    42    46   am
    42    42    43    2
    43    44    45    1
    44    46    47    1
    45    47    50    1
    46    47    48    1
    47    48    49    2
    48    48    51   am
    49    51    52    1
    50    52    55    1
    51    52    53    1
    52    53    54    2
    53    53    61   am
    54    55    56    1
    55    56    58   ar
    56    56    57   ar
    57    57    59   ar
    58    58    60   ar
    59    59    60   ar
    60    61    62    1
    61    62    63    1
    62    62    65    1
    63    63    64    2
    64    65    66    1
    65    66    67    1
    66    67    68    1
    67    68    69    2
    68    69    71    1
    69    69    70    1
    70    72    73    1
    71    73    74    1
    72    73    76    1
    73    74    75    2
    74    76    77    1
    75    77    79    1
    76    77    78    1
    77    80    81    1
    78    81    82    1
    79    82    84   am
    80    82    83    2
    81    84    85    1
    82    85    88    1
    83    85    86    1
    84    86    87    2
    85    86    89   am
    86    89    90    1
    87    90    91    1
    88    91    93   am
    89    91    92    2
    90    93    94    1
    91    94    95    1
    92    95    96    2
    93    95    97   am
    94    97    98    1
    95    98   101    1
    96    98    99    1
    97    99   102   am
    98    99   100    2
    99   102   103    1
   100   103   104    1
   101   103   106    1
   102   104   105    2
   103   104   107   am
   104   107   108    1
   105   108   111    1
   106   108   109    1
   107   109   110    2
   108   109   117   am
   109   111   112    1
   110   112   113    2
   111   112   114    1
   112   113   115    1
   113   114   116    1
   114   115   116    2
   115   117   118    1
   116   118   119    1
   117   118   121    1
   118   119   120    2
   119   119   125   am
   120   121   122    1
   121   122   123    1
   122   122   124    1
   123   125   126    1
   124   125   131    1
   125   126   127    1
   126   126   129    1
   127   127   128    2
   128   129   130    1
   129   130   131    1
   130   132   133    1
   131   133   134    1
   132   133   136    1
   133   134   135    2
   134   136   137    1
   135   137   138    1
   136   138   139    1
   137   140   141    1
   138   141   142    1
   139   141   144    1
   140   142   143    2
   141   142   147   am
   142   144   146    1
   143   144   145    1
   144   147   148    1
   145   148   149    1
   146   148   151    1
   147   149   156   am
   148   149   150    2
   149   151   152    1
   150   152   153    1
   151   153   154    2
   152   153   155   am
   153   156   157    1
   154   157   160    1
   155   157   158    1
   156   158   159    2
   157   158   162   am
   158   160   161    1
   159   162   163    1
   160   163   164    1
   161   163   166    1
   162   164   165    2
   163   167   168    1
   164   168   169    1
   165   168   171    1
   166   169   170    2
   167   171   172    1
   168   172   173   ar
   169   172   174   ar
