@<TRIPOS>MOLECULE
./1swk/protein.pdb
 255 255 0 0 0
SMALL
GASTEIGER

@<TRIPOS>ATOM
      1 N          30.8060   10.0360   31.0340 N.3     1  ASN1       -0.1225
      2 CA         30.5560   10.0580   29.5920 C.3     1  ASN1        0.1785
      3 C          31.3820   11.1880   28.9750 C.2     1  ASN1        0.2597
      4 O          32.0660   11.8710   29.7330 O.2     1  ASN1       -0.2718
      5 CB         29.0850   10.1990   29.2840 C.3     1  ASN1        0.1169
      6 CG         28.4660   11.5210   29.6630 C.2     1  ASN1        0.2627
      7 OD1        29.1260   12.5190   29.9360 O.2     1  ASN1       -0.2716
      8 ND2        27.1390   11.5360   29.6410 N.am    1  ASN1       -0.0877
      9 N          31.2210   11.3130   27.6740 N.am    2  GLN2       -0.1965
     10 CA         31.9410   12.2140   26.7970 C.3     2  GLN2        0.1733
     11 C          31.6640   13.6720   27.1200 C.2     2  GLN2        0.2616
     12 O          32.4070   14.5640   26.7310 O.2     2  GLN2       -0.2715
     13 CB         31.6110   11.9100   25.3340 C.3     2  GLN2        0.0408
     14 CG         30.2790   12.4630   24.8660 C.3     2  GLN2        0.0908
     15 CD         29.0990   11.5610   25.1690 C.2     2  GLN2        0.2608
     16 OE1        29.2220   10.4690   25.7230 O.2     2  GLN2       -0.2717
     17 NE2        27.9130   12.0580   24.8230 N.am    2  GLN2       -0.0878
     18 N          30.5720   13.9170   27.8400 N.am    3  LEU3       -0.1977
     19 CA         30.2830   15.2990   28.2160 C.3     3  LEU3        0.1596
     20 C          30.9120   15.6110   29.5670 C.2     3  LEU3        0.2287
     21 O          30.8410   16.7430   30.0260 O.2     3  LEU3       -0.2864
     22 CB         28.7660   15.5020   28.3080 C.3     3  LEU3        0.0297
     23 CG         28.0040   15.4740   26.9840 C.3     3  LEU3        0.0022
     24 CD2        26.5220   15.2520   27.2320 C.3     3  LEU3        0.0001
     25 CD1        28.2420   16.7470   26.1910 C.3     3  LEU3        0.0001
     26 N          29.7230   13.9470   32.3060 N.3     1  SER1       -0.1217
     27 CA         28.7850   13.5800   33.3610 C.3     1  SER1        0.1889
     28 C          29.2590   12.3120   34.0810 C.2     1  SER1        0.2288
     29 O          30.0070   11.5030   33.5420 O.2     1  SER1       -0.2866
     30 CB         27.3700   13.3470   32.8490 C.3     1  SER1        0.2089
     31 OG         27.0380   14.2420   31.8110 O.3     1  SER1       -0.2183
     32 N          23.0280   10.3700   39.4230 N.3     1  TYR1       -0.1241
     33 CA         23.5860   10.8780   38.1620 C.3     1  TYR1        0.1605
     34 C          23.9100   12.3570   38.3610 C.2     1  TYR1        0.2264
     35 O          23.2020   13.1210   39.0170 O.2     1  TYR1       -0.2867
     36 CB         22.6110   10.6810   36.9950 C.3     1  TYR1        0.0534
     37 CG         23.1950   10.7700   35.6030 C.ar    1  TYR1       -0.0201
     38 CD2        23.2870   11.9890   34.9400 C.ar    1  TYR1       -0.0009
     39 CD1        23.6490    9.6450   34.9170 C.ar    1  TYR1       -0.0009
     40 CE2        23.8160   12.0970   33.6670 C.ar    1  TYR1        0.0417
     41 CE1        24.1970    9.7370   33.6490 C.ar    1  TYR1        0.0417
     42 CZ         24.2750   10.9620   33.0230 C.ar    1  TYR1        0.1957
     43 OH         24.8070   11.0700   31.7570 O.3     1  TYR1       -0.2866
     44 N          24.9120   15.5590   35.8440 N.3     1  SER1       -0.1202
     45 CA         25.1020   16.1330   34.5290 C.3     1  SER1        0.2020
     46 C          26.0140   17.3580   34.5740 C.2     1  SER1        0.2619
     47 O          25.8880   18.1820   35.4720 O.2     1  SER1       -0.2717
     48 CB         23.7530   16.5360   33.9230 C.3     1  SER1        0.2103
     49 OG         23.8560   16.5770   32.5100 O.3     1  SER1       -0.2182
     50 N          26.8700   17.5080   33.5930 N.am    2  ALA2       -0.1965
     51 CA         27.8330   18.5440   33.3070 C.3     2  ALA2        0.1728
     52 C          27.2910   19.6570   32.4060 C.2     2  ALA2        0.2616
     53 O          27.9930   20.6340   32.1580 O.2     2  ALA2       -0.2715
     54 CB         29.0290   17.9170   32.5920 C.3     2  ALA2        0.0334
     55 N          26.1020   19.4530   31.8910 N.am    3  VAL3       -0.1963
     56 CA         25.3390   20.1770   30.9170 C.3     3  VAL3        0.1727
     57 C          23.8560   20.1670   31.2820 C.2     3  VAL3        0.2617
     58 O          23.4340   19.2820   32.0120 O.2     3  VAL3       -0.2715
     59 CB         25.4590   19.6410   29.4740 C.3     3  VAL3        0.0290
     60 CG1        26.9170   19.4650   29.0930 C.3     3  VAL3        0.0023
     61 CG2        24.7010   18.3310   29.3020 C.3     3  VAL3        0.0023
     62 N          23.1630   21.1580   30.7380 N.am    4  GLY4       -0.1940
     63 CA         21.7470   21.3600   30.8740 C.3     4  GLY4        0.2014
     64 C          21.3050   22.0670   32.1270 C.2     4  GLY4        0.2639
     65 O          22.0750   22.6150   32.9100 O.2     4  GLY4       -0.2714
     66 N          20.0020   22.0250   32.4090 N.am    5  ASN5       -0.1958
     67 CA         19.5400   22.6720   33.6220 C.3     5  ASN5        0.1819
     68 C          19.6160   21.7320   34.8160 C.2     5  ASN5        0.2621
     69 O          18.6210   21.2120   35.3200 O.2     5  ASN5       -0.2715
     70 CB         18.1370   23.2190   33.3850 C.3     5  ASN5        0.1195
     71 CG         17.5970   23.8630   34.6490 C.2     5  ASN5        0.2630
     72 OD1        18.3500   24.2310   35.5490 O.2     5  ASN5       -0.2716
     73 ND2        16.2810   23.9500   34.7140 N.am    5  ASN5       -0.0877
     74 N          20.8540   21.5280   35.2690 N.am    6  ALA6       -0.1977
     75 CA         21.1640   20.6140   36.3590 C.3     6  ALA6        0.1597
     76 C          22.3480   21.0390   37.2220 C.2     6  ALA6        0.2287
     77 O          23.3930   21.4460   36.7190 O.2     6  ALA6       -0.2864
     78 CB         21.4590   19.2520   35.7250 C.3     6  ALA6        0.0319
     79 N          18.1770    2.9940   32.3100 N.3     1  TRP1       -0.1241
     80 CA         17.8780    3.6590   33.5700 C.3     1  TRP1        0.1602
     81 C          17.1930    4.9820   33.2500 C.2     1  TRP1        0.2264
     82 O          17.2800    5.4330   32.1100 O.2     1  TRP1       -0.2867
     83 CB         19.1270    3.8740   34.4160 C.3     1  TRP1        0.0510
     84 CG         20.1480    4.8130   33.8550 C.2     1  TRP1       -0.0168
     85 CD1        20.2350    6.1600   34.0600 C.3     1  TRP1        0.1477
     86 CD2        21.2360    4.4800   32.9960 C.ar    1  TRP1        0.0113
     87 NE1        21.3060    6.6840   33.3900 N.2     1  TRP1       -0.2659
     88 CE2        21.9330    5.6700   32.7250 C.ar    1  TRP1        0.0758
     89 CE3        21.6750    3.2800   32.4400 C.ar    1  TRP1        0.0009
     90 CZ2        23.0600    5.7160   31.9070 C.ar    1  TRP1        0.0187
     91 CZ3        22.7910    3.3270   31.6340 C.ar    1  TRP1        0.0001
     92 CH2        23.4700    4.5220   31.3750 C.ar    1  TRP1        0.0015
     93 N          16.3240    9.0450   34.9400 N.3     1  VAL1       -0.1245
     94 CA         16.5210   10.1780   35.8110 C.3     1  VAL1        0.1561
     95 C          15.4750   11.2640   35.5510 C.2     1  VAL1        0.2260
     96 O          15.4140   11.8110   34.4580 O.2     1  VAL1       -0.2867
     97 CB         17.9050   10.8300   35.6260 C.3     1  VAL1        0.0252
     98 CG2        17.9860   12.1150   36.4380 C.3     1  VAL1        0.0019
     99 CG1        18.9920    9.8510   36.0120 C.3     1  VAL1        0.0019
    100 N          14.9770   14.9640   36.3820 N.3     1  PHE1       -0.1241
    101 CA         15.8930   16.0260   36.7740 C.3     1  PHE1        0.1605
    102 C          15.2900   17.0240   37.7520 C.2     1  PHE1        0.2264
    103 O          15.1470   18.2240   37.5060 O.2     1  PHE1       -0.2867
    104 CB         16.4920   16.6970   35.5360 C.3     1  PHE1        0.0534
    105 CG         17.6410   15.8500   34.9910 C.ar    1  PHE1       -0.0203
    106 CD2        18.8690   15.8460   35.6130 C.ar    1  PHE1       -0.0042
    107 CD1        17.4560   15.0220   33.8930 C.ar    1  PHE1       -0.0042
    108 CE2        19.9080   15.0620   35.1460 C.ar    1  PHE1       -0.0003
    109 CE1        18.5020   14.2840   33.3830 C.ar    1  PHE1       -0.0003
    110 CZ         19.7320   14.2830   34.0190 C.ar    1  PHE1       -0.0000
    111 N          14.1280   20.6120   36.5880 N.3     1  ALA1       -0.1231
    112 CA         14.0720   20.9740   35.1740 C.3     1  ALA1        0.1694
    113 C          12.7490   20.5840   34.5320 C.2     1  ALA1        0.2592
    114 O          12.5270   20.9640   33.3830 O.2     1  ALA1       -0.2718
    115 CB         15.2080   20.2900   34.4250 C.3     1  ALA1        0.0304
    116 N          11.9150   19.8460   35.2560 N.am    2  HIS2       -0.1962
    117 CA         10.6580   19.3540   34.6960 C.3     2  HIS2        0.1787
    118 C          10.9610   18.5570   33.4270 C.2     2  HIS2        0.2621
    119 O          10.4260   18.7650   32.3440 O.2     2  HIS2       -0.2715
    120 CB          9.6820   20.4810   34.3600 C.3     2  HIS2        0.0785
    121 CG          9.2430   21.2810   35.5460 C.ar    2  HIS2        0.0821
    122 ND1         8.8710   20.7060   36.7410 N.ar    2  HIS2       -0.2267
    123 CD2         9.1570   22.6180   35.7270 C.ar    2  HIS2        0.1154
    124 CE1         8.5580   21.6520   37.6060 C.ar    2  HIS2        0.1986
    125 NE2         8.7240   22.8200   37.0150 N.ar    2  HIS2       -0.2212
    126 N          11.8930   17.6340   33.6060 N.am    3  SER3       -0.1936
    127 CA         12.3530   16.7920   32.5270 C.3     3  SER3        0.2055
    128 C          12.8620   15.4700   33.0920 C.2     3  SER3        0.2643
    129 O          13.1540   15.2970   34.2710 O.2     3  SER3       -0.2714
    130 CB         13.4270   17.4890   31.6900 C.3     3  SER3        0.2130
    131 OG         14.6350   17.6470   32.4130 O.3     3  SER3       -0.2179
    132 N          12.8850   14.4990   32.1900 N.am    4  ALA4       -0.1963
    133 CA         13.3150   13.1520   32.5240 C.3     4  ALA4        0.1728
    134 C          13.9820   12.5630   31.2850 C.2     4  ALA4        0.2617
    135 O          13.5040   12.7380   30.1720 O.2     4  ALA4       -0.2715
    136 CB         12.1250   12.3260   32.9510 C.3     4  ALA4        0.0334
    137 N          15.0930   11.9000   31.5360 N.am    5  THR5       -0.1937
    138 CA         15.8280   11.2050   30.5000 C.3     5  THR5        0.2028
    139 C          15.8460    9.7170   30.7930 C.2     5  THR5        0.2643
    140 O          15.9040    9.2640   31.9360 O.2     5  THR5       -0.2714
    141 CB         17.2590   11.7680   30.4760 C.3     5  THR5        0.1808
    142 OG1        17.1320   13.1720   30.2380 O.3     5  THR5       -0.2208
    143 CG2        18.1060   11.1650   29.3750 C.3     5  THR5        0.0379
    144 N          15.8010    8.9700   29.6940 N.am    6  THR6       -0.1936
    145 CA         16.0260    7.5380   29.7750 C.3     6  THR6        0.2028
    146 C          17.1430    7.1390   28.8090 C.2     6  THR6        0.2642
    147 O          17.1580    7.5750   27.6680 O.2     6  THR6       -0.2714
    148 CB         14.8010    6.7000   29.4310 C.3     6  THR6        0.1808
    149 OG1        14.3910    6.9320   28.0760 O.3     6  THR6       -0.2208
    150 CG2        13.6110    6.9260   30.3370 C.3     6  THR6        0.0379
    151 N          18.0730    6.3520   29.3330 N.am    7  TRP7       -0.1973
    152 CA         19.2170    5.8540   28.6020 C.3     7  TRP7        0.1637
    153 C          18.9890    4.3610   28.3360 C.2     7  TRP7        0.2290
    154 O          18.7260    3.6220   29.2820 O.2     7  TRP7       -0.2864
    155 CB         20.5050    5.9410   29.4190 C.3     7  TRP7        0.0539
    156 CG         21.1380    7.2880   29.5140 C.2     7  TRP7       -0.0137
    157 CD1        22.1600    7.7800   28.7630 C.2     7  TRP7        0.0907
    158 CD2        20.7730    8.3170   30.4360 C.3     7  TRP7        0.0819
    159 NE1        22.4690    9.0540   29.1710 N.2     7  TRP7       -0.2482
    160 CE2        21.6290    9.4110   30.1850 C.2     7  TRP7        0.0665
    161 CE3        19.8050    8.4040   31.4440 C.2     7  TRP7       -0.0164
    162 CZ2        21.5480   10.5960   30.9050 C.2     7  TRP7        0.0153
    163 CZ3        19.7350    9.5840   32.1580 C.2     7  TRP7       -0.0038
    164 CH2        20.6000   10.6600   31.8910 C.2     7  TRP7        0.0009
    165 N          19.6620    7.8910   24.2910 N.3     1  TRP1       -0.1227
    166 CA         18.7730    8.4270   25.3070 C.3     1  TRP1        0.1734
    167 C          17.6780    9.2520   24.6310 C.2     1  TRP1        0.2595
    168 O          17.8040    9.7280   23.5080 O.2     1  TRP1       -0.2718
    169 CB         19.5310    9.2260   26.3650 C.3     1  TRP1        0.0524
    170 CG         20.4830   10.2840   25.9100 C.2     1  TRP1       -0.0167
    171 CD1        21.8470   10.2100   25.8150 C.3     1  TRP1        0.1477
    172 CD2        20.1510   11.6210   25.4860 C.ar    1  TRP1        0.0113
    173 NE1        22.3860   11.3930   25.3500 N.2     1  TRP1       -0.2659
    174 CE2        21.3510   12.2750   25.1440 C.ar    1  TRP1        0.0758
    175 CE3        18.9490   12.3230   25.3570 C.ar    1  TRP1        0.0009
    176 CZ2        21.3740   13.5930   24.6870 C.ar    1  TRP1        0.0187
    177 CZ3        18.9750   13.6310   24.9050 C.ar    1  TRP1        0.0001
    178 CH2        20.1840   14.2600   24.5730 C.ar    1  TRP1        0.0015
    179 N          16.6170    9.3750   25.3980 N.am    2  LEU2       -0.1966
    180 CA         15.4780   10.2090   25.1270 C.3     2  LEU2        0.1728
    181 C          15.2290   11.1120   26.3370 C.2     2  LEU2        0.2616
    182 O          15.0690   10.5940   27.4400 O.2     2  LEU2       -0.2715
    183 CB         14.2480    9.3420   24.8770 C.3     2  LEU2        0.0311
    184 CG         14.2730    8.4540   23.6280 C.3     2  LEU2        0.0022
    185 CD2        12.9630    7.6760   23.5070 C.3     2  LEU2        0.0001
    186 CD1        14.5200    9.3000   22.4010 C.3     2  LEU2        0.0001
    187 N          15.1720   12.4110   26.0730 N.am    3  LEU3       -0.1963
    188 CA         14.9130   13.4270   27.0980 C.3     3  LEU3        0.1728
    189 C          13.5810   14.0890   26.8040 C.2     3  LEU3        0.2617
    190 O          13.3840   14.7000   25.7540 O.2     3  LEU3       -0.2715
    191 CB         16.0530   14.4340   27.1360 C.3     3  LEU3        0.0311
    192 CG         15.8930   15.7800   27.8390 C.3     3  LEU3        0.0022
    193 CD2        15.2580   15.6520   29.2060 C.3     3  LEU3        0.0001
    194 CD1        17.2660   16.4320   28.0020 C.3     3  LEU3        0.0001
    195 N          12.6300   13.9300   27.7160 N.am    4  THR4       -0.1937
    196 CA         11.3150   14.5110   27.4960 C.3     4  THR4        0.2028
    197 C          11.0620   15.6030   28.5280 C.2     4  THR4        0.2642
    198 O          11.2560   15.3840   29.7190 O.2     4  THR4       -0.2714
    199 CB         10.1750   13.4840   27.5640 C.3     4  THR4        0.1808
    200 OG1        10.4620   12.4040   26.6640 O.3     4  THR4       -0.2208
    201 CG2         8.9030   14.1410   27.0430 C.3     4  THR4        0.0379
    202 N          10.6880   16.7750   28.0450 N.am    5  SER5       -0.1949
    203 CA         10.3360   17.8840   28.9190 C.3     5  SER5        0.1924
    204 C           8.8160   18.0090   29.0220 C.2     5  SER5        0.2314
    205 O           8.0910   17.7500   28.0580 O.2     5  SER5       -0.2863
    206 CB         10.8680   19.2070   28.3630 C.3     5  SER5        0.2116
    207 OG         12.2640   19.3350   28.5050 O.3     5  SER5       -0.2180
    208 N          14.0370   15.2280   23.0290 N.3     1  LEU1       -0.1231
    209 CA         15.3420   15.2190   22.3820 C.3     1  LEU1        0.1693
    210 C          15.8650   13.7870   22.3440 C.2     1  LEU1        0.2592
    211 O          15.5270   13.0140   23.2400 O.2     1  LEU1       -0.2718
    212 CB         16.3840   16.0180   23.1770 C.3     1  LEU1        0.0284
    213 CG         16.1390   17.5220   23.2580 C.3     1  LEU1        0.0019
    214 CD2        16.7930   18.0850   24.5120 C.3     1  LEU1        0.0001
    215 CD1        16.6690   18.1960   22.0110 C.3     1  LEU1        0.0001
    216 N          16.7250   13.5240   21.3710 N.am    2  VAL2       -0.1966
    217 CA         17.3590   12.2060   21.3250 C.3     2  VAL2        0.1727
    218 C          18.8660   12.3920   21.1600 C.2     2  VAL2        0.2617
    219 O          19.3460   13.2930   20.4780 O.2     2  VAL2       -0.2715
    220 CB         16.8170   11.3210   20.1990 C.3     2  VAL2        0.0290
    221 CG1        17.0380   11.9560   18.8370 C.3     2  VAL2        0.0023
    222 CG2        17.4550    9.9360   20.2370 C.3     2  VAL2        0.0023
    223 N          19.6400   11.5280   21.8000 N.am    3  GLY3       -0.1940
    224 CA         21.0840   11.6240   21.6950 C.3     3  GLY3        0.2014
    225 C          21.7150   10.2820   22.0060 C.2     3  GLY3        0.2639
    226 O          21.0330    9.2740   22.1460 O.2     3  GLY3       -0.2714
    227 N          23.0300   10.2410   22.1070 N.am    4  HIS4       -0.1959
    228 CA         23.7260    9.0200   22.4890 C.3     4  HIS4        0.1787
    229 C          24.9140    9.3710   23.3910 C.2     4  HIS4        0.2620
    230 O          25.6500   10.3140   23.0970 O.2     4  HIS4       -0.2715
    231 CB         24.2120    8.2760   21.2380 C.3     4  HIS4        0.0785
    232 CG         24.8000    9.2310   20.2470 C.ar    4  HIS4        0.0821
    233 ND1        26.1520    9.4480   20.1470 N.ar    4  HIS4       -0.2267
    234 CD2        24.2100   10.0710   19.3590 C.ar    4  HIS4        0.1154
    235 CE1        26.3620   10.3710   19.2250 C.ar    4  HIS4        0.1986
    236 NE2        25.1990   10.7600   18.7240 N.ar    4  HIS4       -0.2212
    237 N          25.1010    8.6310   24.4700 N.am    5  ASP5       -0.1973
    238 CA         26.2250    8.7720   25.3740 C.3     5  ASP5        0.1651
    239 C          27.0080    7.4580   25.4570 C.2     5  ASP5        0.2291
    240 O          26.4520    6.3640   25.4840 O.2     5  ASP5       -0.2864
    241 CB         25.8070    9.1170   26.7970 C.3     5  ASP5        0.0714
    242 CG         25.1550   10.4650   26.9800 C.2     5  ASP5        0.0525
    243 OD1        25.3130   11.3300   26.1000 O.co2   5  ASP5       -0.5491
    244 OD2        24.5040   10.6850   28.0250 O.co2   5  ASP5       -0.5491
    245 N          29.8100    5.7460   27.9480 N.3     1  PHE1       -0.1241
    246 CA         30.3750    5.7260   29.2830 C.3     1  PHE1        0.1605
    247 C          31.5740    4.7900   29.3880 C.2     1  PHE1        0.2264
    248 O          31.5940    3.6840   28.8500 O.2     1  PHE1       -0.2867
    249 CB         29.3360    5.2780   30.3150 C.3     1  PHE1        0.0534
    250 CG         28.1520    6.2140   30.4320 C.ar    1  PHE1       -0.0203
    251 CD1        27.0800    6.0990   29.5680 C.ar    1  PHE1       -0.0042
    252 CD2        28.1440    7.2160   31.3900 C.ar    1  PHE1       -0.0042
    253 CE1        26.0140    6.9740   29.6530 C.ar    1  PHE1       -0.0003
    254 CE2        27.0620    8.0660   31.5070 C.ar    1  PHE1       -0.0003
    255 CZ         25.9850    7.9370   30.6420 C.ar    1  PHE1       -0.0000
@<TRIPOS>UNITY_ATOM_ATTR
243 1
charge -1
@<TRIPOS>BOND
     1     1     2    1
     2     2     3    1
     3     2     5    1
     4     3     9   am
     5     3     4    2
     6     5     6    1
     7     6     8   am
     8     6     7    2
     9     9    10    1
    10    10    13    1
    11    10    11    1
    12    11    12    2
    13    11    18   am
    14    13    14    1
    15    14    15    1
    16    15    17   am
    17    15    16    2
    18    18    19    1
    19    19    22    1
    20    19    20    1
    21    20    21    2
    22    22    23    1
    23    23    25    1
    24    23    24    1
    25    26    27    1
    26    27    30    1
    27    27    28    1
    28    28    29    2
    29    30    31    1
    30    32    33    1
    31    33    36    1
    32    33    34    1
    33    34    35    2
    34    36    37    1
    35    37    39   ar
    36    37    38   ar
    37    38    40   ar
    38    39    41   ar
    39    40    42   ar
    40    41    42   ar
    41    42    43    1
    42    44    45    1
    43    45    48    1
    44    45    46    1
    45    46    50   am
    46    46    47    2
    47    48    49    1
    48    50    51    1
    49    51    52    1
    50    51    54    1
    51    52    55   am
    52    52    53    2
    53    55    56    1
    54    56    59    1
    55    56    57    1
    56    57    62   am
    57    57    58    2
    58    59    60    1
    59    59    61    1
    60    62    63    1
    61    63    64    1
    62    64    66   am
    63    64    65    2
    64    66    67    1
    65    67    70    1
    66    67    68    1
    67    68    74   am
    68    68    69    2
    69    70    71    1
    70    71    73   am
    71    71    72    2
    72    74    75    1
    73    75    78    1
    74    75    76    1
    75    76    77    2
    76    79    80    1
    77    80    81    1
    78    80    83    1
    79    81    82    2
    80    83    84    1
    81    84    86    2
    82    84    85    1
    83    85    87    1
    84    86    89   ar
    85    86    88   ar
    86    87    88    2
    87    88    90   ar
    88    89    91   ar
    89    90    92   ar
    90    91    92   ar
    91    93    94    1
    92    94    95    1
    93    94    97    1
    94    95    96    2
    95    97    99    1
    96    97    98    1
    97   100   101    1
    98   101   104    1
    99   101   102    1
   100   102   103    2
   101   104   105    1
   102   105   107   ar
   103   105   106   ar
   104   106   108   ar
   105   107   109   ar
   106   108   110   ar
   107   109   110   ar
   108   111   112    1
   109   112   115    1
   110   112   113    1
   111   113   114    2
   112   113   116   am
   113   116   117    1
   114   117   118    1
   115   117   120    1
   116   118   119    2
   117   118   126   am
   118   120   121    1
   119   121   123   ar
   120   121   122   ar
   121   122   124   ar
   122   123   125   ar
   123   124   125   ar
   124   126   127    1
   125   127   130    1
   126   127   128    1
   127   128   132   am
   128   128   129    2
   129   130   131    1
   130   132   133    1
   131   133   134    1
   132   133   136    1
   133   134   135    2
   134   134   137   am
   135   137   138    1
   136   138   141    1
   137   138   139    1
   138   139   144   am
   139   139   140    2
   140   141   143    1
   141   141   142    1
   142   144   145    1
   143   145   146    1
   144   145   148    1
   145   146   147    2
   146   146   151   am
   147   148   149    1
   148   148   150    1
   149   151   152    1
   150   152   153    1
   151   152   155    1
   152   153   154    2
   153   155   156    1
   154   156   157    2
   155   156   158    1
   156   157   159    1
   157   158   160    1
   158   158   161    1
   159   159   160    2
   160   160   162    1
   161   161   163    2
   162   162   164    2
   163   163   164    1
   164   165   166    1
   165   166   167    1
   166   166   169    1
   167   167   168    2
   168   167   179   am
   169   169   170    1
   170   170   172    2
   171   170   171    1
   172   171   173    1
   173   172   174   ar
   174   172   175   ar
   175   173   174    2
   176   174   176   ar
   177   175   177   ar
   178   176   178   ar
   179   177   178   ar
   180   179   180    1
   181   180   183    1
   182   180   181    1
   183   181   187   am
   184   181   182    2
   185   183   184    1
   186   184   186    1
   187   184   185    1
   188   187   188    1
   189   188   189    1
   190   188   191    1
   191   189   190    2
   192   189   195   am
   193   191   192    1
   194   192   194    1
   195   192   193    1
   196   195   196    1
   197   196   199    1
   198   196   197    1
   199   197   202   am
   200   197   198    2
   201   199   200    1
   202   199   201    1
   203   202   203    1
   204   203   206    1
   205   203   204    1
   206   204   205    2
   207   206   207    1
   208   208   209    1
   209   209   210    1
   210   209   212    1
   211   210   216   am
   212   210   211    2
   213   212   213    1
   214   213   215    1
   215   213   214    1
   216   216   217    1
   217   217   220    1
   218   217   218    1
   219   218   219    2
   220   218   223   am
   221   220   221    1
   222   220   222    1
   223   223   224    1
   224   224   225    1
   225   225   227   am
   226   225   226    2
   227   227   228    1
   228   228   231    1
   229   228   229    1
   230   229   230    2
   231   229   237   am
   232   231   232    1
   233   232   234   ar
   234   232   233   ar
   235   233   235   ar
   236   234   236   ar
   237   235   236   ar
   238   237   238    1
   239   238   239    1
   240   238   241    1
   241   239   240    2
   242   241   242    1
   243   242   243   ar
   244   242   244   ar
   245   245   246    1
   246   246   247    1
   247   246   249    1
   248   247   248    2
   249   249   250    1
   250   250   251   ar
   251   250   252   ar
   252   251   253   ar
   253   252   254   ar
   254   253   255   ar
   255   254   255   ar
