@<TRIPOS>MOLECULE
./1a2k/protein.pdb
 76 73 0 0 0
SMALL
GASTEIGER

@<TRIPOS>ATOM
      1 N          48.9250   -6.8860   79.4720 N.3     1  GLY1       -0.1210
      2 CA         49.2110   -7.0290   80.8880 C.3     1  GLY1        0.1956
      3 C          49.9660   -8.3470   81.0970 C.2     1  GLY1        0.2612
      4 O          49.6780   -9.3710   80.4690 O.2     1  GLY1       -0.2717
      5 N          50.9910   -8.3300   81.9360 N.am    2  GLY2       -0.1942
      6 CA         51.8580   -9.4340   82.2580 C.3     2  GLY2        0.2014
      7 C          52.9110   -9.7760   81.2260 C.2     2  GLY2        0.2640
      8 O          53.5110  -10.8520   81.2530 O.2     2  GLY2       -0.2714
      9 N          53.2490   -8.8780   80.2850 N.am    3  THR3       -0.1936
     10 CA         54.2570   -9.1820   79.2880 C.3     3  THR3        0.2028
     11 C          55.6700   -8.9210   79.7960 C.2     3  THR3        0.2643
     12 O          56.6280   -9.4330   79.2280 O.2     3  THR3       -0.2714
     13 CB         54.0520   -8.4810   77.9360 C.3     3  THR3        0.1808
     14 OG1        53.8920   -7.0550   78.0760 O.3     3  THR3       -0.2208
     15 CG2        52.8560   -9.1040   77.2590 C.3     3  THR3        0.0379
     16 N          55.8520   -8.1030   80.7970 N.am    4  GLY4       -0.1939
     17 CA         57.0640   -7.8290   81.4710 C.3     4  GLY4        0.2014
     18 C          57.4860   -6.3900   81.3430 C.2     4  GLY4        0.2639
     19 O          58.6700   -6.0710   81.5360 O.2     4  GLY4       -0.2714
     20 N          56.5080   -5.5220   81.1350 N.am    5  LYS5       -0.1963
     21 CA         56.8060   -4.1270   80.9020 C.3     5  LYS5        0.1728
     22 C          57.3580   -3.4350   82.1160 C.2     5  LYS5        0.2617
     23 O          58.4050   -2.7800   81.9740 O.2     5  LYS5       -0.2715
     24 CB         55.6030   -3.3580   80.3890 C.3     5  LYS5        0.0311
     25 CG         54.9680   -4.0290   79.1700 C.3     5  LYS5        0.0038
     26 CD         53.8680   -3.1940   78.6000 C.3     5  LYS5        0.0206
     27 CE         52.7170   -2.8180   79.5180 C.3     5  LYS5        0.1093
     28 NZ         51.9390   -4.0400   79.8910 N.3     5  LYS5       -0.1314
     29 N          56.7550   -3.6440   83.2840 N.am    6  THR6       -0.1937
     30 CA         57.3160   -3.0070   84.4890 C.3     6  THR6        0.2028
     31 C          58.6430   -3.5870   84.9230 C.2     6  THR6        0.2642
     32 O          59.5620   -2.8250   85.2320 O.2     6  THR6       -0.2714
     33 CB         56.2510   -3.0570   85.5830 C.3     6  THR6        0.1808
     34 OG1        55.2220   -2.1830   85.0680 O.3     6  THR6       -0.2208
     35 CG2        56.6320   -2.6070   86.9540 C.3     6  THR6        0.0379
     36 N          58.8270   -4.8980   84.8450 N.am    7  THR7       -0.1950
     37 CA         60.0950   -5.5580   84.9830 C.3     7  THR7        0.1897
     38 C          61.1380   -5.0020   84.0230 C.2     7  THR7        0.2313
     39 O          62.1990   -4.5620   84.4700 O.2     7  THR7       -0.2863
     40 CB         59.9500   -7.0700   84.8060 C.3     7  THR7        0.1794
     41 OG1        58.8460   -7.4350   85.6560 O.3     7  THR7       -0.2208
     42 CG2        61.1900   -7.7820   85.3570 C.3     7  THR7        0.0378
     43 N          52.6700    1.7820   82.5330 N.3     1  THR1       -0.1203
     44 CA         51.2710    1.8510   82.9980 C.3     1  THR1        0.1994
     45 C          51.1670    1.5420   84.4760 C.2     1  THR1        0.2618
     46 O          51.9510    0.7580   85.0370 O.2     1  THR1       -0.2717
     47 CB         50.3830    0.8710   82.2020 C.3     1  THR1        0.1784
     48 OG1        50.7320   -0.4610   82.5800 O.3     1  THR1       -0.2211
     49 CG2        50.5620    1.0040   80.6890 C.3     1  THR1        0.0376
     50 N          49.9880    1.8330   85.0580 N.am    2  ALA2       -0.1965
     51 CA         49.6380    1.3740   86.3930 C.3     2  ALA2        0.1728
     52 C          48.8120    0.0970   86.3920 C.2     2  ALA2        0.2616
     53 O          48.0690   -0.2040   87.3210 O.2     2  ALA2       -0.2715
     54 CB         48.9300    2.4540   87.1860 C.3     2  ALA2        0.0334
     55 N          48.8290   -0.6980   85.3410 N.am    3  GLY3       -0.1955
     56 CA         48.2090   -1.9900   85.1790 C.3     3  GLY3        0.1869
     57 C          46.8290   -1.8270   84.5580 C.2     3  GLY3        0.2309
     58 O          46.1760   -2.8160   84.2500 O.2     3  GLY3       -0.2863
     59 N          45.8760   -1.7380   81.3900 N.3     1  GLU1       -0.1231
     60 CA         45.7760   -2.4480   80.1550 C.3     1  GLU1        0.1697
     61 C          45.0790   -3.7810   80.3450 C.2     1  GLU1        0.2592
     62 O          44.7010   -4.4430   79.3740 O.2     1  GLU1       -0.2718
     63 CB         47.1100   -2.6200   79.4370 C.3     1  GLU1        0.0343
     64 CG         48.1210   -3.6260   79.9900 C.3     1  GLU1        0.0437
     65 CD         48.9300   -3.0460   81.1510 C.2     1  GLU1        0.0504
     66 OE2        48.6410   -1.9260   81.6650 O.co2   1  GLU1       -0.5492
     67 OE1        49.8970   -3.7080   81.5930 O.co2   1  GLU1       -0.5492
     68 N          44.8080   -4.2460   81.5470 N.am    2  LYS2       -0.1980
     69 CA         44.0150   -5.3560   81.9540 C.3     2  LYS2        0.1596
     70 C          42.5080   -5.0740   81.8020 C.2     2  LYS2        0.2287
     71 O          41.7920   -5.9930   81.4260 O.2     2  LYS2       -0.2864
     72 CB         44.3170   -5.7690   83.4050 C.3     2  LYS2        0.0298
     73 CG         45.7900   -5.9960   83.6800 C.3     2  LYS2        0.0038
     74 CD         46.1340   -6.2390   85.1280 C.3     2  LYS2        0.0206
     75 CE         47.6590   -6.2930   85.3400 C.3     2  LYS2        0.1093
     76 NZ         47.9640   -6.5380   86.7910 N.3     2  LYS2       -0.1314
@<TRIPOS>UNITY_ATOM_ATTR
66 1
charge -1
@<TRIPOS>BOND
     1     1     2    1
     2     2     3    1
     3     3     4    2
     4     3     5   am
     5     5     6    1
     6     6     7    1
     7     7     9   am
     8     7     8    2
     9     9    10    1
    10    10    13    1
    11    10    11    1
    12    11    12    2
    13    11    16   am
    14    13    15    1
    15    13    14    1
    16    16    17    1
    17    17    18    1
    18    18    20   am
    19    18    19    2
    20    20    21    1
    21    21    24    1
    22    21    22    1
    23    22    23    2
    24    22    29   am
    25    24    25    1
    26    25    26    1
    27    26    27    1
    28    27    28    1
    29    29    30    1
    30    30    31    1
    31    30    33    1
    32    31    36   am
    33    31    32    2
    34    33    34    1
    35    33    35    1
    36    36    37    1
    37    37    38    1
    38    37    40    1
    39    38    39    2
    40    40    42    1
    41    40    41    1
    42    43    44    1
    43    44    47    1
    44    44    45    1
    45    45    46    2
    46    45    50   am
    47    47    49    1
    48    47    48    1
    49    50    51    1
    50    51    52    1
    51    51    54    1
    52    52    55   am
    53    52    53    2
    54    55    56    1
    55    56    57    1
    56    57    58    2
    57    59    60    1
    58    60    63    1
    59    60    61    1
    60    61    62    2
    61    61    68   am
    62    63    64    1
    63    64    65    1
    64    65    67   ar
    65    65    66   ar
    66    68    69    1
    67    69    70    1
    68    69    72    1
    69    70    71    2
    70    72    73    1
    71    73    74    1
    72    74    75    1
    73    75    76    1
