@<TRIPOS>MOLECULE
./1a2k/protein.pdb
 186 185 0 0 0
SMALL
GASTEIGER

@<TRIPOS>ATOM
      1 N          56.5430   -1.6060   71.9420 N.3     1  ILE1       -0.1245
      2 CA         55.4360   -2.5230   72.0350 C.3     1  ILE1        0.1561
      3 C          56.0170   -3.8400   72.5590 C.2     1  ILE1        0.2260
      4 O          56.8480   -4.4280   71.8650 O.2     1  ILE1       -0.2867
      5 CB         54.6750   -2.7540   70.7100 C.3     1  ILE1        0.0252
      6 CG1        54.0850   -1.4340   70.2180 C.3     1  ILE1        0.0019
      7 CG2        53.5760   -3.7870   70.9090 C.3     1  ILE1        0.0019
      8 CD1        53.5220   -1.3610   68.8370 C.3     1  ILE1        0.0001
      9 N          55.5040   -7.9630   73.9520 N.3     1  PHE1       -0.1241
     10 CA         54.7000   -9.1620   74.0340 C.3     1  PHE1        0.1605
     11 C          55.5360  -10.2070   74.7980 C.2     1  PHE1        0.2264
     12 O          56.7120   -9.9850   75.0540 O.2     1  PHE1       -0.2867
     13 CB         54.2340   -9.7290   72.7090 C.3     1  PHE1        0.0534
     14 CG         55.2540  -10.2870   71.7750 C.ar    1  PHE1       -0.0203
     15 CD1        56.0240   -9.4320   70.9810 C.ar    1  PHE1       -0.0042
     16 CD2        55.4600  -11.6460   71.6660 C.ar    1  PHE1       -0.0042
     17 CE1        56.9780   -9.9210   70.1120 C.ar    1  PHE1       -0.0003
     18 CE2        56.4240  -12.1390   70.7820 C.ar    1  PHE1       -0.0003
     19 CZ         57.2030  -11.2860   70.0310 C.ar    1  PHE1       -0.0000
     20 N          51.1580  -11.7950   71.5390 N.3     1  TYR1       -0.1227
     21 CA         51.7440  -11.4780   70.2610 C.3     1  TYR1        0.1736
     22 C          50.6890  -11.1410   69.2300 C.2     1  TYR1        0.2595
     23 O          50.7280  -10.0680   68.6180 O.2     1  TYR1       -0.2718
     24 CB         52.6390  -12.6160   69.7670 C.3     1  TYR1        0.0548
     25 CG         53.2710  -12.3570   68.4280 C.ar    1  TYR1       -0.0200
     26 CD2        54.0460  -11.2290   68.1860 C.ar    1  TYR1       -0.0009
     27 CD1        53.0640  -13.2610   67.4080 C.ar    1  TYR1       -0.0009
     28 CE2        54.5990  -11.0080   66.9480 C.ar    1  TYR1        0.0417
     29 CE1        53.6190  -13.0420   66.1660 C.ar    1  TYR1        0.0417
     30 CZ         54.3840  -11.9200   65.9460 C.ar    1  TYR1        0.1957
     31 OH         54.9060  -11.7230   64.6820 O.3     1  TYR1       -0.2866
     32 N          49.5410  -11.8240   69.2520 N.am    2  LYS2       -0.1980
     33 CA         48.4010  -11.5680   68.4090 C.3     2  LYS2        0.1596
     34 C          47.6780  -10.2730   68.6610 C.2     2  LYS2        0.2287
     35 O          47.1730   -9.6800   67.7060 O.2     2  LYS2       -0.2864
     36 CB         47.4680  -12.7850   68.3860 C.3     2  LYS2        0.0298
     37 CG         47.8950  -13.7620   67.2940 C.3     2  LYS2        0.0038
     38 CD         48.2550  -15.1250   67.8200 C.3     2  LYS2        0.0206
     39 CE         47.0370  -15.9870   68.0780 C.3     2  LYS2        0.1093
     40 NZ         47.0480  -16.5590   69.4540 N.3     2  LYS2       -0.1314
     41 N          49.5440   -7.5270   69.2840 N.3     1  VAL1       -0.1231
     42 CA         50.4990   -6.5450   68.8320 C.3     1  VAL1        0.1678
     43 C          49.8720   -5.5550   67.9030 C.2     1  VAL1        0.2434
     44 O          49.8880   -4.3650   68.2570 O.2     1  VAL1       -0.2733
     45 CB         51.8230   -7.1250   68.3170 C.3     1  VAL1        0.0265
     46 CG1        52.6970   -6.1380   67.5760 C.3     1  VAL1        0.0020
     47 CG2        52.6270   -7.7560   69.4590 C.3     1  VAL1        0.0020
     48 N          49.1830   -5.9560   66.8260 N.am    2  PRO2       -0.2729
     49 CA         48.4960   -5.0520   65.9180 C.3     2  PRO2        0.1401
     50 C          47.4390   -4.1570   66.5080 C.2     2  PRO2        0.2269
     51 O          47.4000   -2.9510   66.1840 O.2     2  PRO2       -0.2865
     52 CB         47.9310   -5.9200   64.8160 C.3     2  PRO2        0.0296
     53 CG         48.5060   -7.2770   64.9400 C.3     2  PRO2        0.0237
     54 CD         49.1440   -7.3470   66.2980 C.3     2  PRO2        0.0939
     55 N          49.6480   -1.5990   68.0960 N.3     1  HIS1       -0.1227
     56 CA         50.0820   -0.7650   66.9850 C.3     1  HIS1        0.1749
     57 C          48.9890    0.1620   66.4880 C.2     1  HIS1        0.2595
     58 O          49.1780    1.3930   66.4940 O.2     1  HIS1       -0.2718
     59 CB         50.7930   -1.5770   65.9150 C.3     1  HIS1        0.0718
     60 CG         51.5810   -0.7910   64.9160 C.2     1  HIS1        0.0650
     61 ND1        52.1790   -1.3600   63.8250 N.2     1  HIS1       -0.2310
     62 CD2        51.8920    0.5210   64.8250 C.3     1  HIS1        0.1683
     63 CE1        52.7670   -0.4180   63.0990 C.2     1  HIS1        0.1939
     64 NE2        52.6250    0.7420   63.7010 N.2     1  HIS1       -0.2440
     65 N          47.7870   -0.2800   66.1670 N.am    2  ARG2       -0.1980
     66 CA         46.6370    0.5100   65.8040 C.3     2  ARG2        0.1597
     67 C          46.2850    1.6320   66.7640 C.2     2  ARG2        0.2287
     68 O          46.2080    2.8160   66.4340 O.2     2  ARG2       -0.2864
     69 CB         45.4130   -0.4460   65.7370 C.3     2  ARG2        0.0334
     70 CG         44.2830    0.1880   64.9580 C.3     2  ARG2        0.0492
     71 CD         42.8990   -0.0410   65.4770 C.3     2  ARG2        0.2205
     72 NE         42.7820   -0.4730   66.8490 N.pl3   2  ARG2       -0.0865
     73 CZ         42.4140   -1.6690   67.2780 C.cat   2  ARG2        0.5346
     74 NH1        42.1250   -2.6350   66.4290 N.pl3   2  ARG2        0.1354
     75 NH2        42.3880   -1.9090   68.5860 N.pl3   2  ARG2        0.1354
     76 N          58.9870    2.7120   66.3270 N.3     1  ILE1       -0.1231
     77 CA         58.4810    1.7550   67.2670 C.3     1  ILE1        0.1692
     78 C          59.4780    0.5930   67.2870 C.2     1  ILE1        0.2592
     79 O          59.8550    0.1560   66.2060 O.2     1  ILE1       -0.2718
     80 CB         57.1050    1.1880   66.8770 C.3     1  ILE1        0.0266
     81 CG1        55.9790    2.2180   66.8710 C.3     1  ILE1        0.0019
     82 CG2        56.6320    0.0710   67.7940 C.3     1  ILE1        0.0020
     83 CD1        55.1260    2.1500   65.6440 C.3     1  ILE1        0.0001
     84 N          59.8180    0.0510   68.4430 N.am    2  VAL2       -0.1966
     85 CA         60.5590   -1.2020   68.4780 C.3     2  VAL2        0.1727
     86 C          59.5320   -2.2240   69.0320 C.2     2  VAL2        0.2616
     87 O          58.8170   -1.8450   69.9520 O.2     2  VAL2       -0.2715
     88 CB         61.7610   -1.2190   69.4470 C.3     2  VAL2        0.0290
     89 CG2        62.5680   -2.5150   69.3480 C.3     2  VAL2        0.0023
     90 CG1        62.6970   -0.0690   69.2120 C.3     2  VAL2        0.0023
     91 N          59.5590   -3.4410   68.5300 N.am    3  LEU3       -0.1977
     92 CA         58.7270   -4.5110   69.0410 C.3     3  LEU3        0.1596
     93 C          59.5520   -5.4350   69.9160 C.2     3  LEU3        0.2287
     94 O          60.6220   -5.8040   69.4340 O.2     3  LEU3       -0.2864
     95 CB         58.1580   -5.2830   67.8560 C.3     3  LEU3        0.0297
     96 CG         57.5320   -6.6460   68.1710 C.3     3  LEU3        0.0022
     97 CD2        56.3190   -6.4950   69.0880 C.3     3  LEU3        0.0001
     98 CD1        57.1000   -7.2940   66.8650 C.3     3  LEU3        0.0001
     99 N          57.9960  -16.8220   62.9880 N.3     1  SER1       -0.1202
    100 CA         56.7630  -16.0720   62.9020 C.3     1  SER1        0.2020
    101 C          56.8780  -14.5800   63.1510 C.2     1  SER1        0.2619
    102 O          55.8790  -13.8780   62.9420 O.2     1  SER1       -0.2717
    103 CB         55.7090  -16.6500   63.8580 C.3     1  SER1        0.2103
    104 OG         56.1060  -17.9080   64.3540 O.3     1  SER1       -0.2182
    105 N          57.9910  -14.0670   63.6570 N.am    2  ILE2       -0.1965
    106 CA         58.1490  -12.6460   63.9170 C.3     2  ILE2        0.1727
    107 C          58.7320  -11.9110   62.7150 C.2     2  ILE2        0.2616
    108 O          58.3520  -10.7780   62.4210 O.2     2  ILE2       -0.2715
    109 CB         59.0600  -12.3840   65.1260 C.3     2  ILE2        0.0290
    110 CG1        58.6320  -13.2290   66.3260 C.3     2  ILE2        0.0022
    111 CG2        59.0630  -10.9100   65.5090 C.3     2  ILE2        0.0023
    112 CD1        59.7340  -13.3820   67.3470 C.3     2  ILE2        0.0001
    113 N          59.7410  -12.5000   62.0710 N.am    3  VAL3       -0.1963
    114 CA         60.3760  -11.8060   60.9580 C.3     3  VAL3        0.1727
    115 C          59.9070  -12.3000   59.6000 C.2     3  VAL3        0.2616
    116 O          60.4390  -13.2280   58.9960 O.2     3  VAL3       -0.2715
    117 CB         61.9030  -11.7590   61.0420 C.3     3  VAL3        0.0290
    118 CG2        62.3520  -10.7410   62.0910 C.3     3  VAL3        0.0023
    119 CG1        62.5260  -13.1070   61.3470 C.3     3  VAL3        0.0023
    120 N          58.8780  -11.6360   59.0740 N.am    4  PHE4       -0.1960
    121 CA         58.4140  -11.8990   57.7160 C.3     4  PHE4        0.1771
    122 C          59.0480  -10.8330   56.8100 C.2     4  PHE4        0.2620
    123 O          59.7570  -11.1140   55.8530 O.2     4  PHE4       -0.2715
    124 CB         56.9000  -11.8900   57.5700 C.3     4  PHE4        0.0574
    125 CG         56.1350  -11.2500   58.6880 C.ar    4  PHE4       -0.0200
    126 CD1        55.9460   -9.8800   58.7260 C.ar    4  PHE4       -0.0042
    127 CD2        55.6220  -12.0170   59.7220 C.ar    4  PHE4       -0.0042
    128 CE1        55.2570   -9.2850   59.7640 C.ar    4  PHE4       -0.0003
    129 CE2        54.9260  -11.4290   60.7610 C.ar    4  PHE4       -0.0003
    130 CZ         54.7460  -10.0630   60.7830 C.ar    4  PHE4       -0.0000
    131 N          58.8260   -9.5950   57.1940 N.am    5  HIS5       -0.1959
    132 CA         59.2520   -8.3700   56.5380 C.3     5  HIS5        0.1787
    133 C          58.8970   -7.2260   57.5090 C.2     5  HIS5        0.2620
    134 O          57.8000   -7.2820   58.0840 O.2     5  HIS5       -0.2715
    135 CB         58.4710   -8.1380   55.2630 C.3     5  HIS5        0.0785
    136 CG         59.0520   -8.3710   53.9210 C.ar    5  HIS5        0.0821
    137 ND1        58.9350   -9.5830   53.2700 N.ar    5  HIS5       -0.2267
    138 CD2        59.6980   -7.5530   53.0530 C.ar    5  HIS5        0.1154
    139 CE1        59.4970   -9.5080   52.0790 C.ar    5  HIS5        0.1986
    140 NE2        59.9710   -8.2850   51.9240 N.ar    5  HIS5       -0.2212
    141 N          59.7760   -6.2610   57.7240 N.am    6  ARG6       -0.1963
    142 CA         59.4620   -5.2240   58.7040 C.3     6  ARG6        0.1729
    143 C          59.3710   -3.8390   58.0850 C.2     6  ARG6        0.2616
    144 O          59.9210   -3.5720   57.0180 O.2     6  ARG6       -0.2715
    145 CB         60.5200   -5.1760   59.8120 C.3     6  ARG6        0.0348
    146 CG         60.3490   -6.1820   60.9350 C.3     6  ARG6        0.0492
    147 CD         61.3390   -7.3350   60.7750 C.3     6  ARG6        0.2205
    148 NE         62.1900   -7.5220   61.9350 N.pl3   6  ARG6       -0.0865
    149 CZ         63.2790   -6.8500   62.2740 C.cat   6  ARG6        0.5346
    150 NH1        63.7340   -5.8390   61.5440 N.pl3   6  ARG6        0.1354
    151 NH2        63.9390   -7.1890   63.3790 N.pl3   6  ARG6        0.1354
    152 N          58.8060   -2.9150   58.8690 N.am    7  UNK7       -0.1977
    153 C          58.7700   -1.5170   58.4420 C.3     7  UNK7        0.1596
    154 C          60.1620   -0.9150   58.6000 C.2     7  UNK7        0.2287
    155 O          61.1390   -1.5850   58.9330 O.2     7  UNK7       -0.2864
    156 C          57.7280   -0.7330   59.2300 C.3     7  UNK7        0.0297
    157 C          56.3600   -1.3900   59.3060 C.3     7  UNK7        0.0023
    158 N          59.9930    0.2530   62.5850 N.3     1  LEU1       -0.1231
    159 CA         59.5110   -0.9050   63.3010 C.3     1  LEU1        0.1693
    160 C          60.5890   -1.9830   63.3670 C.2     1  LEU1        0.2592
    161 O          60.6300   -2.8720   62.5220 O.2     1  LEU1       -0.2718
    162 CB         58.2430   -1.4680   62.6930 C.3     1  LEU1        0.0284
    163 CG         57.1320   -2.1260   63.5080 C.3     1  LEU1        0.0019
    164 CD2        57.6410   -3.0660   64.6310 C.3     1  LEU1        0.0001
    165 CD1        56.1800   -0.9950   64.1000 C.3     1  LEU1        0.0001
    166 N          61.4170   -1.9630   64.4010 N.am    2  GLN2       -0.1966
    167 CA         62.4560   -2.9730   64.5480 C.3     2  GLN2        0.1733
    168 C          62.0750   -4.0080   65.5820 C.2     2  GLN2        0.2616
    169 O          61.3250   -3.7060   66.5080 O.2     2  GLN2       -0.2715
    170 CB         63.7940   -2.3130   64.9490 C.3     2  GLN2        0.0408
    171 CG         64.8330   -2.6310   63.8900 C.3     2  GLN2        0.0908
    172 CD         65.8650   -3.6580   64.2450 C.2     2  GLN2        0.2608
    173 OE1        65.6060   -4.7560   64.7070 O.2     2  GLN2       -0.2717
    174 NE2        67.1280   -3.3010   63.9810 N.am    2  GLN2       -0.0878
    175 N          62.5810   -5.2190   65.4790 N.am    3  TYR3       -0.1974
    176 CA         62.3070   -6.2430   66.4790 C.3     3  TYR3        0.1639
    177 C          63.5590   -6.6260   67.2280 C.2     3  TYR3        0.2290
    178 O          64.6740   -6.6380   66.6900 O.2     3  TYR3       -0.2864
    179 CB         61.7150   -7.4870   65.7670 C.3     3  TYR3        0.0560
    180 CG         61.5480   -8.6270   66.7470 C.ar    3  TYR3       -0.0198
    181 CD2        60.5630   -8.4910   67.7220 C.ar    3  TYR3       -0.0009
    182 CD1        62.4150   -9.7030   66.8240 C.ar    3  TYR3       -0.0009
    183 CE2        60.3800   -9.4290   68.7010 C.ar    3  TYR3        0.0417
    184 CE1        62.2230  -10.6560   67.8030 C.ar    3  TYR3        0.0417
    185 CZ         61.2140  -10.5170   68.7360 C.ar    3  TYR3        0.1957
    186 OH         61.0350  -11.4250   69.7580 O.3     3  TYR3       -0.2866
@<TRIPOS>BOND
     1     1     2    1
     2     2     5    1
     3     2     3    1
     4     3     4    2
     5     5     6    1
     6     5     7    1
     7     6     8    1
     8     9    10    1
     9    10    13    1
    10    10    11    1
    11    11    12    2
    12    13    14    1
    13    14    15   ar
    14    14    16   ar
    15    15    17   ar
    16    16    18   ar
    17    17    19   ar
    18    18    19   ar
    19    20    21    1
    20    21    22    1
    21    21    24    1
    22    22    23    2
    23    22    32   am
    24    24    25    1
    25    25    27   ar
    26    25    26   ar
    27    26    28   ar
    28    27    29   ar
    29    28    30   ar
    30    29    30   ar
    31    30    31    1
    32    32    33    1
    33    33    36    1
    34    33    34    1
    35    34    35    2
    36    36    37    1
    37    37    38    1
    38    38    39    1
    39    39    40    1
    40    41    42    1
    41    42    43    1
    42    42    45    1
    43    43    48   am
    44    43    44    2
    45    45    46    1
    46    45    47    1
    47    48    49    1
    48    48    54    1
    49    49    52    1
    50    49    50    1
    51    50    51    2
    52    52    53    1
    53    53    54    1
    54    55    56    1
    55    56    59    1
    56    56    57    1
    57    57    65   am
    58    57    58    2
    59    59    60    1
    60    60    61    2
    61    60    62    1
    62    61    63    1
    63    62    64    1
    64    63    64    2
    65    65    66    1
    66    66    69    1
    67    66    67    1
    68    67    68    2
    69    69    70    1
    70    70    71    1
    71    71    72    1
    72    72    73    2
    73    73    74    1
    74    73    75    1
    75    76    77    1
    76    77    80    1
    77    77    78    1
    78    78    79    2
    79    78    84   am
    80    80    81    1
    81    80    82    1
    82    81    83    1
    83    84    85    1
    84    85    86    1
    85    85    88    1
    86    86    91   am
    87    86    87    2
    88    88    90    1
    89    88    89    1
    90    91    92    1
    91    92    95    1
    92    92    93    1
    93    93    94    2
    94    95    96    1
    95    96    98    1
    96    96    97    1
    97    99   100    1
    98   100   101    1
    99   100   103    1
   100   101   102    2
   101   101   105   am
   102   103   104    1
   103   105   106    1
   104   106   107    1
   105   106   109    1
   106   107   113   am
   107   107   108    2
   108   109   111    1
   109   109   110    1
   110   110   112    1
   111   113   114    1
   112   114   115    1
   113   114   117    1
   114   115   116    2
   115   115   120   am
   116   117   119    1
   117   117   118    1
   118   120   121    1
   119   121   122    1
   120   121   124    1
   121   122   123    2
   122   122   131   am
   123   124   125    1
   124   125   126   ar
   125   125   127   ar
   126   126   128   ar
   127   127   129   ar
   128   128   130   ar
   129   129   130   ar
   130   131   132    1
   131   132   135    1
   132   132   133    1
   133   133   141   am
   134   133   134    2
   135   135   136    1
   136   136   138   ar
   137   136   137   ar
   138   137   139   ar
   139   138   140   ar
   140   139   140   ar
   141   141   142    1
   142   142   143    1
   143   142   145    1
   144   143   144    2
   145   143   152   am
   146   145   146    1
   147   146   147    1
   148   147   148    1
   149   148   149    2
   150   149   150    1
   151   149   151    1
   152   152   153    1
   153   153   154    1
   154   153   156    1
   155   154   155    2
   156   156   157    1
   157   158   159    1
   158   159   162    1
   159   159   160    1
   160   160   161    2
   161   160   166   am
   162   162   163    1
   163   163   165    1
   164   163   164    1
   165   166   167    1
   166   167   170    1
   167   167   168    1
   168   168   175   am
   169   168   169    2
   170   170   171    1
   171   171   172    1
   172   172   174   am
   173   172   173    2
   174   175   176    1
   175   176   179    1
   176   176   177    1
   177   177   178    2
   178   179   180    1
   179   180   182   ar
   180   180   181   ar
   181   181   183   ar
   182   182   184   ar
   183   183   185   ar
   184   184   185   ar
   185   185   186    1
