@<TRIPOS>MOLECULE
./1mu0/protein.pdb
 274 262 0 0 0
SMALL
GASTEIGER

@<TRIPOS>ATOM
      1 N          13.9170   -0.5580   13.9240 N.3     1  HIS1       -0.1226
      2 CA         13.4790    0.8260   13.8060 C.3     1  HIS1        0.1752
      3 C          14.5720    1.6860   13.1640 C.2     1  HIS1        0.2597
      4 O          15.7120    1.2400   12.9930 O.2     1  HIS1       -0.2718
      5 CB         13.0990    1.3920   15.1820 C.3     1  HIS1        0.0759
      6 CG         14.2010    1.3260   16.1970 C.ar    1  HIS1        0.0818
      7 ND1        14.5110    0.1750   16.8890 N.ar    1  HIS1       -0.2268
      8 CD2        15.0640    2.2730   16.6390 C.ar    1  HIS1        0.1154
      9 CE1        15.5150    0.4150   17.7150 C.ar    1  HIS1        0.1986
     10 NE2        15.8680    1.6810   17.5830 N.ar    1  HIS1       -0.2212
     11 N          14.2180    2.9180   12.8110 N.am    2  GLY2       -0.1942
     12 CA         15.1730    3.8120   12.1830 C.3     2  GLY2        0.2014
     13 C          15.9740    4.6560   13.1550 C.2     2  GLY2        0.2639
     14 O          16.4490    4.1660   14.1790 O.2     2  GLY2       -0.2714
     15 N          16.1150    5.9370   12.8350 N.am    3  GLY3       -0.1940
     16 CA         16.8810    6.8300   13.6850 C.3     3  GLY3        0.1998
     17 C          18.1640    7.2290   12.9790 C.2     3  GLY3        0.2480
     18 O          18.1050    7.9250   11.9640 O.2     3  GLY3       -0.2729
     19 N          19.3400    6.8050   13.4750 N.am    4  PRO4       -0.2726
     20 CA         19.5690    5.9690   14.6630 C.3     4  PRO4        0.1402
     21 C          19.0950    6.6630   15.9400 C.2     4  PRO4        0.2269
     22 O          18.9580    7.8830   15.9720 O.2     4  PRO4       -0.2865
     23 CB         21.0880    5.7730   14.6660 C.3     4  PRO4        0.0296
     24 CG         21.4730    5.9520   13.2240 C.3     4  PRO4        0.0237
     25 CD         20.6130    7.1050   12.7990 C.3     4  PRO4        0.0939
     26 N          16.1100    5.7210   18.0410 N.3     1  MET1       -0.1245
     27 CA         14.6600    5.8310   18.1460 C.3     1  MET1        0.1570
     28 C          14.1540    4.5990   18.8860 C.2     1  MET1        0.2261
     29 O          14.7990    4.1400   19.8290 O.2     1  MET1       -0.2867
     30 CB         14.0180    5.9260   16.7580 C.3     1  MET1        0.0387
     31 CG         14.3490    7.2120   16.0150 C.3     1  MET1        0.0595
     32 SD         13.4260    7.4210   14.4680 S.3     1  MET1       -0.1393
     33 CE         12.1070    8.5260   15.0020 C.3     1  MET1        0.0692
     34 N           7.2140    3.3730   17.0120 N.3     1  TYR1       -0.1241
     35 CA          6.5700    3.8420   15.7850 C.3     1  TYR1        0.1605
     36 C           6.3240    2.7740   14.7170 C.2     1  TYR1        0.2264
     37 O           5.7290    3.0610   13.6740 O.2     1  TYR1       -0.2867
     38 CB          7.3610    4.9990   15.1690 C.3     1  TYR1        0.0534
     39 CG          8.5300    4.5750   14.3240 C.ar    1  TYR1       -0.0201
     40 CD2         9.7120    4.1270   14.9070 C.ar    1  TYR1       -0.0009
     41 CD1         8.4580    4.6280   12.9350 C.ar    1  TYR1       -0.0009
     42 CE2        10.7940    3.7460   14.1280 C.ar    1  TYR1        0.0417
     43 CE1         9.5360    4.2480   12.1470 C.ar    1  TYR1        0.0417
     44 CZ         10.6980    3.8110   12.7510 C.ar    1  TYR1        0.1957
     45 OH         11.7710    3.4470   11.9770 O.3     1  TYR1       -0.2866
     46 N          13.3600   -0.4410    8.8040 N.3     1  SER1       -0.1202
     47 CA         12.7380    0.8240    8.4310 C.3     1  SER1        0.2020
     48 C          13.7140    1.9880    8.5730 C.2     1  SER1        0.2619
     49 O          14.2880    2.1970    9.6410 O.2     1  SER1       -0.2717
     50 CB         11.5050    1.0820    9.2990 C.3     1  SER1        0.2103
     51 OG         10.9380    2.3410    8.9910 O.3     1  SER1       -0.2182
     52 N          13.8930    2.7470    7.4970 N.am    2  SER2       -0.1937
     53 CA         14.8050    3.8850    7.5100 C.3     2  SER2        0.2055
     54 C          16.2170    3.3910    7.8330 C.2     2  SER2        0.2643
     55 O          16.7680    2.5540    7.1200 O.2     2  SER2       -0.2714
     56 CB         14.3450    4.9100    8.5540 C.3     2  SER2        0.2130
     57 OG         14.8740    6.2180    8.2970 O.3     2  SER2       -0.2179
     58 N          16.8070    3.9100    8.9020 N.am    3  TYR3       -0.1959
     59 CA         18.1420    3.4810    9.2890 C.3     3  TYR3        0.1771
     60 C          18.1290    1.9780    9.5250 C.2     3  TYR3        0.2620
     61 O          19.1240    1.2880    9.2740 O.2     3  TYR3       -0.2715
     62 CB         18.5860    4.2090   10.5550 C.3     3  TYR3        0.0574
     63 CG         19.7120    3.5250   11.2920 C.ar    3  TYR3       -0.0198
     64 CD2        19.4570    2.7560   12.4240 C.ar    3  TYR3       -0.0009
     65 CD1        21.0340    3.6610   10.8670 C.ar    3  TYR3       -0.0009
     66 CE2        20.4940    2.1410   13.1240 C.ar    3  TYR3        0.0417
     67 CE1        22.0800    3.0500   11.5590 C.ar    3  TYR3        0.0417
     68 CZ         21.8030    2.2950   12.6870 C.ar    3  TYR3        0.1957
     69 OH         22.8300    1.7080   13.3940 O.3     3  TYR3       -0.2866
     70 N          16.9970    1.4780   10.0170 N.am    4  GLY4       -0.1954
     71 CA         16.8640    0.0550   10.2630 C.3     4  GLY4        0.1869
     72 C          16.9410   -0.6860    8.9440 C.2     4  GLY4        0.2309
     73 O          17.4450   -1.8050    8.8760 O.2     4  GLY4       -0.2863
     74 N          18.6970    0.2400    6.3190 N.3     1  ALA1       -0.1245
     75 CA         20.1160    0.2270    5.9740 C.3     1  ALA1        0.1562
     76 C          20.8060   -0.8500    6.7950 C.2     1  ALA1        0.2260
     77 O          21.6280   -1.6080    6.2810 O.2     1  ALA1       -0.2867
     78 CB         20.7420    1.5890    6.2650 C.3     1  ALA1        0.0290
     79 N          11.8890    2.4920    2.9460 N.3     1  GLY1       -0.1210
     80 CA         12.4010    3.8380    3.1260 C.3     1  GLY1        0.1956
     81 C          13.8480    3.8150    3.5770 C.2     1  GLY1        0.2612
     82 O          14.3400    4.7780    4.1690 O.2     1  GLY1       -0.2717
     83 N          14.5340    2.7130    3.2930 N.am    2  GLY2       -0.1942
     84 CA         15.9240    2.5870    3.6890 C.3     2  GLY2        0.2014
     85 C          16.8940    3.1670    2.6830 C.2     2  GLY2        0.2638
     86 O          16.4940    3.8300    1.7230 O.2     2  GLY2       -0.2714
     87 N          18.1780    2.9160    2.9140 N.am    3  LEU3       -0.1977
     88 CA         19.2350    3.4020    2.0400 C.3     3  LEU3        0.1596
     89 C          20.4710    2.5230    2.1780 C.2     3  LEU3        0.2287
     90 O          20.6500    1.8280    3.1810 O.2     3  LEU3       -0.2864
     91 CB         19.6130    4.8420    2.3960 C.3     3  LEU3        0.0297
     92 CG         20.1890    5.0570    3.8010 C.3     3  LEU3        0.0022
     93 CD1        21.0550    6.3080    3.8170 C.3     3  LEU3        0.0001
     94 CD2        19.0620    5.1530    4.8200 C.3     3  LEU3        0.0001
     95 N          24.5320    6.8710    2.5550 N.3     1  VAL1       -0.1245
     96 CA         24.0920    8.0840    3.2240 C.3     1  VAL1        0.1561
     97 C          24.3460    9.2960    2.3250 C.2     1  VAL1        0.2260
     98 O          23.4520   10.1140    2.1100 O.2     1  VAL1       -0.2867
     99 CB         24.8090    8.2540    4.5810 C.3     1  VAL1        0.0252
    100 CG1        24.3920    9.5640    5.2410 C.3     1  VAL1        0.0019
    101 CG2        24.4580    7.0800    5.4900 C.3     1  VAL1        0.0019
    102 N          21.5340    9.6530   -0.1030 N.3     1  THR1       -0.1218
    103 CA         20.3030   10.1160    0.5170 C.3     1  THR1        0.1862
    104 C          20.4160   11.5930    0.8660 C.2     1  THR1        0.2287
    105 O          19.4370   12.3360    0.7800 O.2     1  THR1       -0.2866
    106 CB         19.9980    9.3280    1.7950 C.3     1  THR1        0.1770
    107 OG1        19.9170    7.9310    1.4860 O.3     1  THR1       -0.2211
    108 CG2        18.6780    9.7830    2.3870 C.3     1  THR1        0.0375
    109 N          17.9920   14.5520   -0.3740 N.3     1  MET1       -0.1245
    110 CA         17.2530   15.4140    0.5420 C.3     1  MET1        0.1570
    111 C          17.4840   16.8980    0.2680 C.2     1  MET1        0.2261
    112 O          16.5650   17.7070    0.4050 O.2     1  MET1       -0.2867
    113 CB         17.6130   15.0920    1.9970 C.3     1  MET1        0.0387
    114 CG         17.1530   13.7130    2.4600 C.3     1  MET1        0.0595
    115 SD         17.3240   13.4670    4.2510 S.3     1  MET1       -0.1393
    116 CE         19.1260   13.3880    4.4080 C.3     1  MET1        0.0692
    117 N           8.9550   17.6020    7.9460 N.3     1  TYR1       -0.1241
    118 CA          8.4680   16.3560    8.5290 C.3     1  TYR1        0.1605
    119 C           7.0270   16.0200    8.1330 C.2     1  TYR1        0.2264
    120 O           6.6980   14.8560    7.9220 O.2     1  TYR1       -0.2867
    121 CB          8.5750   16.4150   10.0560 C.3     1  TYR1        0.0534
    122 CG          9.9850   16.3290   10.5940 C.ar    1  TYR1       -0.0201
    123 CD1        11.0880   16.3610    9.7420 C.ar    1  TYR1       -0.0009
    124 CD2        10.2150   16.2290   11.9610 C.ar    1  TYR1       -0.0009
    125 CE1        12.3880   16.2960   10.2440 C.ar    1  TYR1        0.0417
    126 CE2        11.5020   16.1640   12.4710 C.ar    1  TYR1        0.0417
    127 CZ         12.5850   16.1980   11.6100 C.ar    1  TYR1        0.1957
    128 OH         13.8620   16.1370   12.1220 O.3     1  TYR1       -0.2866
    129 N           8.4280   13.1070    6.1360 N.3     1  LEU1       -0.1231
    130 CA          8.6130   12.1180    7.1960 C.3     1  LEU1        0.1693
    131 C           7.3090   11.3680    7.4660 C.2     1  LEU1        0.2591
    132 O           7.2890   10.1370    7.5390 O.2     1  LEU1       -0.2718
    133 CB          9.0930   12.7880    8.4860 C.3     1  LEU1        0.0284
    134 CG          9.3810   11.8150    9.6350 C.3     1  LEU1        0.0019
    135 CD1        10.5370   10.9020    9.2440 C.3     1  LEU1        0.0001
    136 CD2         9.7090   12.5850   10.9070 C.3     1  LEU1        0.0001
    137 N           6.2250   12.1200    7.6210 N.am    2  LEU2       -0.1980
    138 CA          4.9110   11.5390    7.8700 C.3     2  LEU2        0.1596
    139 C           3.8680   12.5560    7.4240 C.2     2  LEU2        0.2287
    140 O           3.8460   13.6890    7.9060 O.2     2  LEU2       -0.2864
    141 CB          4.7340   11.2280    9.3580 C.3     2  LEU2        0.0297
    142 CG          3.7770   10.0900    9.7350 C.3     2  LEU2        0.0022
    143 CD2         3.6820   10.0110   11.2500 C.3     2  LEU2        0.0001
    144 CD1         2.4030   10.3150    9.1270 C.3     2  LEU2        0.0001
    145 N          -0.6260   12.8820   14.1780 N.3     1  TRP1       -0.1241
    146 CA          0.4460   11.9090   14.3860 C.3     1  TRP1        0.1602
    147 C           0.1590   10.9320   15.5230 C.2     1  TRP1        0.2264
    148 O          -0.2590   11.3310   16.6110 O.2     1  TRP1       -0.2867
    149 CB          1.7550   12.6410   14.6740 C.3     1  TRP1        0.0513
    150 CG          2.3550   13.3210   13.4810 C.2     1  TRP1       -0.0140
    151 CD1         1.6880   13.8720   12.4260 C.2     1  TRP1        0.0907
    152 CD2         3.7460   13.5480   13.2400 C.3     1  TRP1        0.0819
    153 NE1         2.5800   14.4270   11.5400 N.2     1  TRP1       -0.2482
    154 CE2         3.8520   14.2440   12.0190 C.2     1  TRP1        0.0665
    155 CE3         4.9160   13.2330   13.9420 C.2     1  TRP1       -0.0164
    156 CZ2         5.0890   14.6290   11.4790 C.2     1  TRP1        0.0153
    157 CZ3         6.1500   13.6180   13.4050 C.2     1  TRP1       -0.0038
    158 CH2         6.2220   14.3080   12.1880 C.2     1  TRP1        0.0009
    159 N           4.7030    7.0340   17.2060 N.3     1  VAL1       -0.1245
    160 CA          5.7270    7.8150   16.5290 C.3     1  VAL1        0.1561
    161 C           6.3060    8.8420   17.4940 C.2     1  VAL1        0.2260
    162 O           7.5210    8.9200   17.6850 O.2     1  VAL1       -0.2867
    163 CB          5.1430    8.5450   15.3020 C.3     1  VAL1        0.0252
    164 CG2         6.1540    9.5390   14.7510 C.3     1  VAL1        0.0019
    165 CG1         4.7670    7.5320   14.2360 C.3     1  VAL1        0.0019
    166 N           8.7880    7.4520   19.8550 N.3     1  SER1       -0.1202
    167 CA         10.0670    7.1310   19.2360 C.3     1  SER1        0.2020
    168 C          10.8370    8.4230   18.9920 C.2     1  SER1        0.2618
    169 O          12.0610    8.4630   19.1330 O.2     1  SER1       -0.2717
    170 CB          9.8480    6.3930   17.9150 C.3     1  SER1        0.2103
    171 OG          9.1870    5.1610   18.1320 O.3     1  SER1       -0.2182
    172 N          10.1160    9.4780   18.6220 N.am    2  LEU2       -0.1979
    173 CA         10.7340   10.7770   18.3870 C.3     2  LEU2        0.1596
    174 C          11.2350   11.3020   19.7270 C.2     2  LEU2        0.2287
    175 O          12.3380   11.8380   19.8320 O.2     2  LEU2       -0.2864
    176 CB          9.7160   11.7610   17.8080 C.3     2  LEU2        0.0297
    177 CG          9.2670   11.5830   16.3590 C.3     2  LEU2        0.0022
    178 CD2         8.1610   12.5830   16.0560 C.3     2  LEU2        0.0001
    179 CD1        10.4420   11.7890   15.4170 C.3     2  LEU2        0.0001
    180 N          20.8730    9.1620   18.3690 N.3     1  TYR1       -0.1241
    181 CA         20.4480   10.0460   17.2810 C.3     1  TYR1        0.1605
    182 C          21.3830   11.2450   17.1380 C.2     1  TYR1        0.2264
    183 O          21.6350   11.7260   16.0320 O.2     1  TYR1       -0.2867
    184 CB         19.0210   10.5510   17.5260 C.3     1  TYR1        0.0534
    185 CG         18.4040   11.2560   16.3350 C.ar    1  TYR1       -0.0201
    186 CD1        17.9570   10.5350   15.2300 C.ar    1  TYR1       -0.0009
    187 CD2        18.2800   12.6400   16.3070 C.ar    1  TYR1       -0.0009
    188 CE1        17.4000   11.1760   14.1230 C.ar    1  TYR1        0.0417
    189 CE2        17.7250   13.2930   15.2050 C.ar    1  TYR1        0.0417
    190 CZ         17.2870   12.5540   14.1170 C.ar    1  TYR1        0.1957
    191 OH         16.7390   13.1930   13.0230 O.3     1  TYR1       -0.2866
    192 N          23.2900   10.3100   13.9030 N.3     1  ASN1       -0.1240
    193 CA         22.5250   11.0400   12.8980 C.3     1  ASN1        0.1653
    194 C          22.8850   12.5210   12.8380 C.2     1  ASN1        0.2266
    195 O          23.6020   12.9580   11.9390 O.2     1  ASN1       -0.2867
    196 CB         21.0250   10.8830   13.1650 C.3     1  ASN1        0.1155
    197 CG         20.1740   11.6180   12.1520 C.2     1  ASN1        0.2627
    198 OD1        20.1920   12.8480   12.0810 O.2     1  ASN1       -0.2716
    199 ND2        19.4260   10.8670   11.3560 N.am    1  ASN1       -0.0877
    200 N          18.8060   16.8820   13.0420 N.3     1  ASN1       -0.1225
    201 CA         17.5110   16.4440   12.5330 C.3     1  ASN1        0.1785
    202 C          17.6540   15.5040   11.3380 C.2     1  ASN1        0.2597
    203 O          18.7650   15.1130   10.9740 O.2     1  ASN1       -0.2718
    204 CB         16.6440   17.6580   12.1610 C.3     1  ASN1        0.1169
    205 CG         17.3520   18.6220   11.2230 C.2     1  ASN1        0.2627
    206 OD1        17.7040   18.2690   10.0980 O.2     1  ASN1       -0.2716
    207 ND2        17.5610   19.8490   11.6860 N.am    1  ASN1       -0.0877
    208 N          16.5240   15.1480   10.7360 N.am    2  GLU2       -0.1979
    209 CA         16.4960   14.2400    9.5920 C.3     2  GLU2        0.1600
    210 C          17.2630   14.7280    8.3630 C.2     2  GLU2        0.2287
    211 O          17.8950   13.9310    7.6690 O.2     2  GLU2       -0.2864
    212 CB         15.0410   13.9490    9.2010 C.3     2  GLU2        0.0356
    213 CG         14.2400   13.2590   10.2950 C.3     2  GLU2        0.0439
    214 CD         14.5590   11.7770   10.4130 C.2     2  GLU2        0.0504
    215 OE2        14.5670   11.2570   11.5490 O.co2   2  GLU2       -0.5492
    216 OE1        14.7860   11.1280    9.3690 O.co2   2  GLU2       -0.5492
    217 N          22.3390   15.7610    8.6730 N.3     1  ILE1       -0.1245
    218 CA         23.1810   14.6940    9.2000 C.3     1  ILE1        0.1561
    219 C          24.6630   15.0660    9.2930 C.2     1  ILE1        0.2260
    220 O          25.3310   15.3020    8.2870 O.2     1  ILE1       -0.2867
    221 CB         23.0190   13.4040    8.3610 C.3     1  ILE1        0.0252
    222 CG1        23.9870   12.3320    8.8580 C.3     1  ILE1        0.0019
    223 CG2        23.2480   13.7040    6.8950 C.3     1  ILE1        0.0019
    224 CD1        23.7500   10.9710    8.2480 C.3     1  ILE1        0.0001
    225 N          27.6720    8.6360   10.4580 N.3     1  ILE1       -0.1245
    226 CA         27.3080    7.8200    9.3030 C.3     1  ILE1        0.1561
    227 C          27.2470    8.6480    8.0250 C.2     1  ILE1        0.2260
    228 O          26.9050    8.1350    6.9590 O.2     1  ILE1       -0.2867
    229 CB         25.9470    7.1180    9.5000 C.3     1  ILE1        0.0252
    230 CG1        24.8820    8.1440    9.8890 C.3     1  ILE1        0.0019
    231 CG2        26.0750    6.0240   10.5500 C.3     1  ILE1        0.0019
    232 CD1        23.4890    7.5760    9.9650 C.3     1  ILE1        0.0001
    233 N           8.6830   10.4670    0.1720 N.3     1  ASP1       -0.1227
    234 CA          9.6210    9.9210    1.1430 C.3     1  ASP1        0.1748
    235 C          10.9250   10.7100    1.2500 C.2     1  ASP1        0.2596
    236 O          11.6090   10.9270    0.2510 O.2     1  ASP1       -0.2718
    237 CB          9.9160    8.4650    0.7740 C.3     1  ASP1        0.0701
    238 CG         10.5520    7.6930    1.9050 C.2     1  ASP1        0.0523
    239 OD1        10.5480    6.4440    1.8430 O.co2   1  ASP1       -0.5491
    240 OD2        11.0580    8.3310    2.8510 O.co2   1  ASP1       -0.5491
    241 N          11.2650   11.1320    2.4690 N.am    2  GLU2       -0.1965
    242 CA         12.4960   11.8880    2.7090 C.3     2  GLU2        0.1731
    243 C          13.6890   11.1430    2.1120 C.2     2  GLU2        0.2616
    244 O          14.6740   11.7550    1.6990 O.2     2  GLU2       -0.2715
    245 CB         12.7130   12.1160    4.2120 C.3     2  GLU2        0.0370
    246 CG         12.6420   10.8630    5.0700 C.3     2  GLU2        0.0440
    247 CD         13.0270   11.1240    6.5180 C.2     2  GLU2        0.0504
    248 OE2        12.4950   12.0830    7.1180 O.co2   2  GLU2       -0.5492
    249 OE1        13.8570   10.3650    7.0590 O.co2   2  GLU2       -0.5492
    250 N          13.5970    9.8170    2.0850 N.am    3  VAL3       -0.1977
    251 CA         14.6410    8.9910    1.4910 C.3     3  VAL3        0.1596
    252 C          14.0210    8.5250    0.1800 C.2     3  VAL3        0.2287
    253 O          13.5010    7.4120    0.0690 O.2     3  VAL3       -0.2864
    254 CB         15.0000    7.7810    2.3770 C.3     3  VAL3        0.0276
    255 CG1        16.1740    7.0260    1.7690 C.3     3  VAL3        0.0022
    256 CG2        15.3550    8.2500    3.7790 C.3     3  VAL3        0.0022
    257 N           7.7520    8.9230    4.3230 N.3     1  HIS1       -0.1227
    258 CA          8.7000    8.0450    5.0000 C.3     1  HIS1        0.1749
    259 C           8.0660    6.9360    5.8290 C.2     1  HIS1        0.2595
    260 O           8.2900    5.7530    5.5650 O.2     1  HIS1       -0.2718
    261 CB          9.6230    8.8760    5.8910 C.3     1  HIS1        0.0718
    262 CG         10.8340    8.1350    6.3620 C.2     1  HIS1        0.0650
    263 ND1        11.7320    7.5510    5.4950 N.2     1  HIS1       -0.2310
    264 CD2        11.3080    7.9020    7.6090 C.3     1  HIS1        0.1683
    265 CE1        12.7090    6.9910    6.1860 C.2     1  HIS1        0.1939
    266 NE2        12.4760    7.1900    7.4710 N.2     1  HIS1       -0.2440
    267 N           7.2920    7.3160    6.8410 N.am    2  LEU2       -0.1980
    268 CA          6.6370    6.3390    7.7050 C.3     2  LEU2        0.1596
    269 C           5.3620    5.8410    7.0390 C.2     2  LEU2        0.2287
    270 O           4.2590    6.2750    7.3730 O.2     2  LEU2       -0.2864
    271 CB          6.3030    6.9680    9.0620 C.3     2  LEU2        0.0297
    272 CG          7.4330    7.7380    9.7520 C.3     2  LEU2        0.0022
    273 CD2         6.9410    8.2400   11.0960 C.3     2  LEU2        0.0001
    274 CD1         8.6560    6.8470    9.9250 C.3     2  LEU2        0.0001
@<TRIPOS>UNITY_ATOM_ATTR
215 1
charge -1
239 1
charge -1
248 1
charge -1
@<TRIPOS>BOND
     1     1     2    1
     2     2     3    1
     3     2     5    1
     4     3    11   am
     5     3     4    2
     6     5     6    1
     7     6     8   ar
     8     6     7   ar
     9     7     9   ar
    10     8    10   ar
    11     9    10   ar
    12    11    12    1
    13    12    13    1
    14    13    15   am
    15    13    14    2
    16    15    16    1
    17    16    17    1
    18    17    18    2
    19    17    19   am
    20    19    25    1
    21    19    20    1
    22    20    23    1
    23    20    21    1
    24    21    22    2
    25    23    24    1
    26    24    25    1
    27    26    27    1
    28    27    30    1
    29    27    28    1
    30    28    29    2
    31    30    31    1
    32    31    32    1
    33    32    33    1
    34    34    35    1
    35    35    36    1
    36    35    38    1
    37    36    37    2
    38    38    39    1
    39    39    41   ar
    40    39    40   ar
    41    40    42   ar
    42    41    43   ar
    43    42    44   ar
    44    43    44   ar
    45    44    45    1
    46    46    47    1
    47    47    48    1
    48    47    50    1
    49    48    52   am
    50    48    49    2
    51    50    51    1
    52    52    53    1
    53    53    54    1
    54    53    56    1
    55    54    55    2
    56    54    58   am
    57    56    57    1
    58    58    59    1
    59    59    60    1
    60    59    62    1
    61    60    61    2
    62    60    70   am
    63    62    63    1
    64    63    65   ar
    65    63    64   ar
    66    64    66   ar
    67    65    67   ar
    68    66    68   ar
    69    67    68   ar
    70    68    69    1
    71    70    71    1
    72    71    72    1
    73    72    73    2
    74    74    75    1
    75    75    78    1
    76    75    76    1
    77    76    77    2
    78    79    80    1
    79    80    81    1
    80    81    83   am
    81    81    82    2
    82    83    84    1
    83    84    85    1
    84    85    86    2
    85    85    87   am
    86    87    88    1
    87    88    89    1
    88    88    91    1
    89    89    90    2
    90    91    92    1
    91    92    93    1
    92    92    94    1
    93    95    96    1
    94    96    97    1
    95    96    99    1
    96    97    98    2
    97    99   100    1
    98    99   101    1
    99   102   103    1
   100   103   104    1
   101   103   106    1
   102   104   105    2
   103   106   107    1
   104   106   108    1
   105   109   110    1
   106   110   111    1
   107   110   113    1
   108   111   112    2
   109   113   114    1
   110   114   115    1
   111   115   116    1
   112   117   118    1
   113   118   119    1
   114   118   121    1
   115   119   120    2
   116   121   122    1
   117   122   123   ar
   118   122   124   ar
   119   123   125   ar
   120   124   126   ar
   121   125   127   ar
   122   126   127   ar
   123   127   128    1
   124   129   130    1
   125   130   131    1
   126   130   133    1
   127   131   132    2
   128   131   137   am
   129   133   134    1
   130   134   135    1
   131   134   136    1
   132   137   138    1
   133   138   139    1
   134   138   141    1
   135   139   140    2
   136   141   142    1
   137   142   144    1
   138   142   143    1
   139   145   146    1
   140   146   149    1
   141   146   147    1
   142   147   148    2
   143   149   150    1
   144   150   151    2
   145   150   152    1
   146   151   153    1
   147   152   154    1
   148   152   155    1
   149   153   154    2
   150   154   156    1
   151   155   157    2
   152   156   158    2
   153   157   158    1
   154   159   160    1
   155   160   163    1
   156   160   161    1
   157   161   162    2
   158   163   165    1
   159   163   164    1
   160   166   167    1
   161   167   170    1
   162   167   168    1
   163   168   172   am
   164   168   169    2
   165   170   171    1
   166   172   173    1
   167   173   176    1
   168   173   174    1
   169   174   175    2
   170   176   177    1
   171   177   179    1
   172   177   178    1
   173   180   181    1
   174   181   182    1
   175   181   184    1
   176   182   183    2
   177   184   185    1
   178   185   186   ar
   179   185   187   ar
   180   186   188   ar
   181   187   189   ar
   182   188   190   ar
   183   189   190   ar
   184   190   191    1
   185   192   193    1
   186   193   194    1
   187   193   196    1
   188   194   195    2
   189   196   197    1
   190   197   199   am
   191   197   198    2
   192   200   201    1
   193   201   202    1
   194   201   204    1
   195   202   208   am
   196   202   203    2
   197   204   205    1
   198   205   206    2
   199   205   207   am
   200   208   209    1
   201   209   210    1
   202   209   212    1
   203   210   211    2
   204   212   213    1
   205   213   214    1
   206   214   216   ar
   207   214   215   ar
   208   217   218    1
   209   218   221    1
   210   218   219    1
   211   219   220    2
   212   221   223    1
   213   221   222    1
   214   222   224    1
   215   225   226    1
   216   226   227    1
   217   226   229    1
   218   227   228    2
   219   229   230    1
   220   229   231    1
   221   230   232    1
   222   233   234    1
   223   234   237    1
   224   234   235    1
   225   235   236    2
   226   235   241   am
   227   237   238    1
   228   238   239   ar
   229   238   240   ar
   230   241   242    1
   231   242   243    1
   232   242   245    1
   233   243   244    2
   234   243   250   am
   235   245   246    1
   236   246   247    1
   237   247   249   ar
   238   247   248   ar
   239   250   251    1
   240   251   252    1
   241   251   254    1
   242   252   253    2
   243   254   255    1
   244   254   256    1
   245   257   258    1
   246   258   259    1
   247   258   261    1
   248   259   260    2
   249   259   267   am
   250   261   262    1
   251   262   263    2
   252   262   264    1
   253   263   265    1
   254   264   266    1
   255   265   266    2
   256   267   268    1
   257   268   269    1
   258   268   271    1
   259   269   270    2
   260   271   272    1
   261   272   274    1
   262   272   273    1
