@<TRIPOS>MOLECULE
./2dzb/protein.pdb
 316 304 0 0 0
SMALL
GASTEIGER

@<TRIPOS>ATOM
      1 N         -27.6960   30.1060   15.0240 N.3     1  LEU1       -0.1245
      2 CA        -28.0480   29.0520   15.9670 C.3     1  LEU1        0.1561
      3 C         -27.0340   27.9630   15.6600 C.2     1  LEU1        0.2260
      4 O         -27.1330   27.3050   14.6220 O.2     1  LEU1       -0.2867
      5 CB        -29.4590   28.5070   15.7170 C.3     1  LEU1        0.0270
      6 CG        -30.6820   29.2850   16.2110 C.3     1  LEU1        0.0019
      7 CD1       -30.8140   30.5890   15.4480 C.3     1  LEU1        0.0001
      8 CD2       -31.9370   28.4180   16.0270 C.3     1  LEU1        0.0001
      9 N         -25.4710   24.4370   15.8490 N.3     1  VAL1       -0.1231
     10 CA        -25.9860   23.1030   16.1280 C.3     1  VAL1        0.1692
     11 C         -25.0810   22.2240   16.9820 C.2     1  VAL1        0.2592
     12 O         -23.8780   22.1200   16.7470 O.2     1  VAL1       -0.2718
     13 CB        -26.2930   22.3420   14.8150 C.3     1  VAL1        0.0266
     14 CG2       -26.7530   20.9210   15.1230 C.3     1  VAL1        0.0020
     15 CG1       -27.3600   23.0800   14.0290 C.3     1  VAL1        0.0020
     16 N         -25.6870   21.5970   17.9800 N.am    2  LEU2       -0.1966
     17 CA        -24.9850   20.6760   18.8640 C.3     2  LEU2        0.1728
     18 C         -25.8550   19.4200   18.8410 C.2     2  LEU2        0.2616
     19 O         -26.8510   19.3230   19.5580 O.2     2  LEU2       -0.2715
     20 CB        -24.8870   21.2560   20.2780 C.3     2  LEU2        0.0311
     21 CG        -24.0760   20.4680   21.3130 C.3     2  LEU2        0.0022
     22 CD2       -23.7030   21.3740   22.4810 C.3     2  LEU2        0.0001
     23 CD1       -24.8780   19.2740   21.7910 C.3     2  LEU2        0.0001
     24 N         -25.4850   18.4770   17.9780 N.am    3  ASN3       -0.1958
     25 CA        -26.2270   17.2320   17.8170 C.3     3  ASN3        0.1819
     26 C         -25.7510   16.1490   18.7830 C.2     3  ASN3        0.2621
     27 O         -24.5760   15.7850   18.7940 O.2     3  ASN3       -0.2715
     28 CB        -26.1010   16.7480   16.3660 C.3     3  ASN3        0.1195
     29 CG        -26.9450   15.5190   16.0800 C.2     3  ASN3        0.2630
     30 OD1       -27.8600   15.1870   16.8350 O.2     3  ASN3       -0.2716
     31 ND2       -26.6480   14.8440   14.9760 N.am    3  ASN3       -0.0877
     32 N         -26.6780   15.6370   19.5880 N.am    4  LEU4       -0.1963
     33 CA        -26.3700   14.6020   20.5690 C.3     4  LEU4        0.1728
     34 C         -26.9680   13.2460   20.1820 C.2     4  LEU4        0.2616
     35 O         -27.4840   12.5190   21.0330 O.2     4  LEU4       -0.2715
     36 CB        -26.8960   15.0230   21.9450 C.3     4  LEU4        0.0311
     37 CG        -26.3590   16.3360   22.5190 C.3     4  LEU4        0.0022
     38 CD2       -27.1360   16.7070   23.7710 C.3     4  LEU4        0.0001
     39 CD1       -24.8750   16.1950   22.8250 C.3     4  LEU4        0.0001
     40 N         -26.8940   12.9100   18.8990 N.am    5  THR5       -0.1951
     41 CA        -27.4320   11.6450   18.4080 C.3     5  THR5        0.1897
     42 C         -26.3100   10.7200   17.9440 C.2     5  THR5        0.2313
     43 O         -25.3390   11.1670   17.3310 O.2     5  THR5       -0.2863
     44 CB        -28.4040   11.8800   17.2320 C.3     5  THR5        0.1794
     45 OG1       -29.5280   12.6440   17.6870 O.3     5  THR5       -0.2208
     46 CG2       -28.8950   10.5560   16.6650 C.3     5  THR5        0.0378
     47 N         -28.2420   25.4530   19.6240 N.3     1  ASP1       -0.1241
     48 CA        -29.3550   24.5470   19.3370 C.3     1  ASP1        0.1616
     49 C         -28.9720   23.1040   19.6640 C.2     1  ASP1        0.2264
     50 O         -28.1480   22.5010   18.9790 O.2     1  ASP1       -0.2867
     51 CB        -29.7540   24.6810   17.8600 C.3     1  ASP1        0.0687
     52 CG        -31.0390   23.9460   17.5220 C.2     1  ASP1        0.0522
     53 OD2       -32.0650   24.1750   18.1970 O.co2   1  ASP1       -0.5491
     54 OD1       -31.0300   23.1460   16.5640 O.co2   1  ASP1       -0.5491
     55 N         -30.0380   19.0770   20.3890 N.3     1  GLY1       -0.1210
     56 CA        -31.0660   18.1190   20.0270 C.3     1  GLY1        0.1956
     57 C         -30.5580   16.6870   20.0970 C.2     1  GLY1        0.2612
     58 O         -29.4980   16.3470   19.5880 O.2     1  GLY1       -0.2717
     59 N         -31.3510   15.8400   20.7820 N.am    2  ALA2       -0.1965
     60 CA        -31.0670   14.4130   20.7620 C.3     2  ALA2        0.1728
     61 C         -32.0670   13.6550   19.8790 C.2     2  ALA2        0.2616
     62 O         -32.1430   12.4400   19.8840 O.2     2  ALA2       -0.2715
     63 CB        -31.1280   13.8900   22.1980 C.3     2  ALA2        0.0334
     64 N         -32.8850   14.4290   19.1300 N.am    3  GLU3       -0.1963
     65 CA        -33.8170   13.8030   18.1910 C.3     3  GLU3        0.1731
     66 C         -33.0720   13.2250   16.9820 C.2     3  GLU3        0.2617
     67 O         -31.8970   13.4820   16.7600 O.2     3  GLU3       -0.2715
     68 CB        -34.7910   14.8840   17.7210 C.3     3  GLU3        0.0370
     69 CG        -34.0990   16.2350   17.5130 C.3     3  GLU3        0.0440
     70 CD        -34.2720   16.6770   16.0770 C.2     3  GLU3        0.0504
     71 OE2       -35.4050   16.8440   15.6490 O.co2   3  GLU3       -0.5492
     72 OE1       -33.2640   16.8660   15.3980 O.co2   3  GLU3       -0.5492
     73 N         -33.7860   12.3850   16.2080 N.am    4  SER4       -0.1950
     74 CA        -33.1840   11.8680   14.9830 C.3     4  SER4        0.1924
     75 CB        -33.9700   12.3000   13.7420 C.2     4  SER4        0.2314
     76 OG        -33.4660   12.9870   12.8620 O.2     4  SER4       -0.2863
     77 C         -33.1370   10.3410   15.0640 C.3     4  SER4        0.2116
     78 O         -31.9460    9.9400   15.7430 O.3     4  SER4       -0.2180
     79 N         -31.5850   26.7390   22.5150 N.3     1  SER1       -0.1217
     80 CA        -32.7800   26.2870   21.8130 C.3     1  SER1        0.1889
     81 C         -32.7770   24.7690   21.9090 C.2     1  SER1        0.2288
     82 O         -31.7260   24.1420   21.7730 O.2     1  SER1       -0.2866
     83 CB        -32.7270   26.7050   20.3430 C.3     1  SER1        0.2089
     84 OG        -33.7880   26.1170   19.6100 O.3     1  SER1       -0.2183
     85 N         -34.0960   21.3180   20.2980 N.3     1  ASP1       -0.1241
     86 CA        -34.6820   20.6990   19.1190 C.3     1  ASP1        0.1616
     87 C         -35.3190   19.3810   19.5340 C.2     1  ASP1        0.2264
     88 O         -34.6330   18.3700   19.6410 O.2     1  ASP1       -0.2867
     89 CB        -33.5940   20.4370   18.0760 C.3     1  ASP1        0.0687
     90 CG        -34.1580   20.1390   16.6990 C.2     1  ASP1        0.0522
     91 OD2       -35.1900   19.4430   16.6100 O.co2   1  ASP1       -0.5491
     92 OD1       -33.5610   20.5940   15.7010 O.co2   1  ASP1       -0.5491
     93 N         -39.4150   17.1280   19.5030 N.3     1  ARG1       -0.1245
     94 CA        -40.8220   17.0860   19.1190 C.3     1  ARG1        0.1563
     95 C         -41.6860   16.4530   20.2110 C.2     1  ARG1        0.2260
     96 O         -42.9140   16.5150   20.1490 O.2     1  ARG1       -0.2867
     97 CB        -40.9930   16.2900   17.8230 C.3     1  ARG1        0.0307
     98 CG        -40.8630   14.7870   18.0100 C.3     1  ARG1        0.0489
     99 CD        -41.0060   14.0560   16.6940 C.3     1  ARG1        0.2205
    100 NE        -39.8340   14.2320   15.8450 N.pl3   1  ARG1       -0.0865
    101 CZ        -38.6270   13.7610   16.1380 C.cat   1  ARG1        0.5346
    102 NH2       -38.4320   13.0830   17.2630 N.pl3   1  ARG1        0.1354
    103 NH1       -37.6160   13.9610   15.3030 N.pl3   1  ARG1        0.1354
    104 N         -35.5780   28.5700   23.9270 N.3     1  LEU1       -0.1245
    105 CA        -36.3110   28.4980   22.6730 C.3     1  LEU1        0.1561
    106 C         -36.7130   27.0630   22.3620 C.2     1  LEU1        0.2260
    107 O         -35.9430   26.1280   22.5970 O.2     1  LEU1       -0.2867
    108 CB        -35.4400   29.0470   21.5360 C.3     1  LEU1        0.0270
    109 CG        -36.0570   29.1470   20.1360 C.3     1  LEU1        0.0019
    110 CD2       -37.1690   30.1770   20.1510 C.3     1  LEU1        0.0001
    111 CD1       -34.9950   29.5450   19.1170 C.3     1  LEU1        0.0001
    112 N         -37.6210   24.4320   19.4930 N.3     1  ASN1       -0.1225
    113 CA        -37.5190   24.1770   18.0580 C.3     1  ASN1        0.1785
    114 C         -38.2590   22.8770   17.7510 C.2     1  ASN1        0.2597
    115 O         -37.7490   21.7870   18.0080 O.2     1  ASN1       -0.2718
    116 CB        -36.0440   24.0820   17.6600 C.3     1  ASN1        0.1169
    117 CG        -35.8510   23.8190   16.1790 C.2     1  ASN1        0.2627
    118 OD1       -36.6950   24.1730   15.3520 O.2     1  ASN1       -0.2716
    119 ND2       -34.7220   23.2130   15.8340 N.am    1  ASN1       -0.0877
    120 N         -39.4650   23.0110   17.2030 N.am    2  ASP2       -0.1962
    121 CA        -40.3230   21.8700   16.8820 C.3     2  ASP2        0.1783
    122 C         -40.4040   21.5670   15.3850 C.2     2  ASP2        0.2619
    123 O         -41.1090   22.2560   14.6430 O.2     2  ASP2       -0.2715
    124 CB        -41.7280   22.1450   17.4280 C.3     2  ASP2        0.0728
    125 CG        -42.6990   21.0010   17.1820 C.2     2  ASP2        0.0526
    126 OD1       -42.2690   19.8920   16.7980 O.co2   2  ASP2       -0.5491
    127 OD2       -43.9070   21.2210   17.3900 O.co2   2  ASP2       -0.5491
    128 N         -39.6950   20.5290   14.9430 N.am    3  VAL3       -0.1977
    129 CA        -39.7140   20.1680   13.5290 C.3     3  VAL3        0.1596
    130 C         -41.1120   19.7690   13.0540 C.2     3  VAL3        0.2287
    131 O         -41.4170   19.8840   11.8680 O.2     3  VAL3       -0.2864
    132 CB        -38.7130   19.0140   13.1980 C.3     3  VAL3        0.0276
    133 CG1       -37.2850   19.4500   13.5280 C.3     3  VAL3        0.0022
    134 CG2       -39.0840   17.7410   13.9600 C.3     3  VAL3        0.0022
    135 N         -40.2450   27.7100   17.3370 N.3     1  VAL1       -0.1245
    136 CA        -39.9870   27.6810   15.9080 C.3     1  VAL1        0.1561
    137 C         -40.9960   26.7240   15.2840 C.2     1  VAL1        0.2260
    138 O         -41.0880   25.5670   15.6950 O.2     1  VAL1       -0.2867
    139 CB        -38.5770   27.1340   15.5730 C.3     1  VAL1        0.0252
    140 CG1       -38.4060   27.0510   14.0490 C.3     1  VAL1        0.0019
    141 CG2       -37.5010   28.0220   16.1790 C.3     1  VAL1        0.0019
    142 N         -41.5860   24.7890   12.1580 N.3     1  MET1       -0.1245
    143 CA        -40.9400   24.3530   10.9240 C.3     1  MET1        0.1570
    144 C         -41.9440   23.5420   10.1120 C.2     1  MET1        0.2261
    145 O         -42.8670   22.9520   10.6770 O.2     1  MET1       -0.2867
    146 CB        -39.7180   23.4860   11.2340 C.3     1  MET1        0.0387
    147 CG        -38.8110   23.2650   10.0240 C.3     1  MET1        0.0595
    148 SD        -37.5740   21.9860   10.2810 S.3     1  MET1       -0.1393
    149 CE        -38.5220   20.5320    9.7400 C.3     1  MET1        0.0692
    150 N         -43.0830   20.4380    7.5760 N.3     1  MET1       -0.1245
    151 CA        -42.8990   19.0450    7.1760 C.3     1  MET1        0.1570
    152 C         -44.2790   18.7350    6.5870 C.2     1  MET1        0.2261
    153 O         -45.2970   19.0970    7.1820 O.2     1  MET1       -0.2867
    154 CB        -42.6810   18.1260    8.3830 C.3     1  MET1        0.0387
    155 CG        -41.3280   18.1920    9.0610 C.3     1  MET1        0.0595
    156 SD        -41.3650   17.1650   10.5530 S.3     1  MET1       -0.1393
    157 CE        -41.2380   15.5220    9.8670 C.3     1  MET1        0.0692
    158 N         -41.4030   11.4890   10.1140 N.3     1  PRO1       -0.2116
    159 CA        -40.1350   11.5200    9.3760 C.3     1  PRO1        0.1372
    160 C         -39.9750   10.3550    8.4020 C.2     1  PRO1        0.2244
    161 O         -39.4210   10.5090    7.3150 O.2     1  PRO1       -0.2868
    162 CB        -39.0900   11.4790   10.4900 C.3     1  PRO1        0.0268
    163 CG        -39.7770   12.1860   11.6200 C.3     1  PRO1        0.0207
    164 CD        -41.1630   11.5850   11.5660 C.3     1  PRO1        0.0892
    165 N         -42.4120   11.2310    5.2670 N.3     1  MET1       -0.1245
    166 CA        -42.4500   12.5640    4.6460 C.3     1  MET1        0.1570
    167 C         -42.0960   12.6170    3.1540 C.2     1  MET1        0.2261
    168 O         -42.6430   13.4130    2.4040 O.2     1  MET1       -0.2867
    169 CB        -41.6370   13.5640    5.4660 C.3     1  MET1        0.0387
    170 CG        -40.1110   13.3260    5.4970 C.3     1  MET1        0.0595
    171 SD        -39.3250   14.5570    6.5430 S.3     1  MET1       -0.1393
    172 CE        -37.8290   13.6590    7.0140 C.3     1  MET1        0.0692
    173 N         -39.9980   28.5440    9.7480 N.3     1  ASP1       -0.1227
    174 CA        -38.9150   27.8500    9.0570 C.3     1  ASP1        0.1733
    175 C         -39.5630   26.9210    8.0190 C.2     1  ASP1        0.2438
    176 O         -40.3140   26.0260    8.3810 O.2     1  ASP1       -0.2733
    177 CB        -38.1220   27.0220   10.0700 C.3     1  ASP1        0.0700
    178 CG        -36.8820   26.3810    9.4710 C.2     1  ASP1        0.0523
    179 OD1       -36.8840   26.0770    8.2600 O.co2   1  ASP1       -0.5491
    180 OD2       -35.9080   26.1730   10.2230 O.co2   1  ASP1       -0.5491
    181 N         -39.2760   27.1270    6.7220 N.am    2  PRO2       -0.2718
    182 CA        -39.8450   26.2970    5.6510 C.3     2  PRO2        0.1535
    183 C         -39.3990   24.8330    5.6860 C.2     2  PRO2        0.2599
    184 O         -39.8990   24.0110    4.9220 O.2     2  PRO2       -0.2715
    185 CB        -39.3950   27.0200    4.3860 C.3     2  PRO2        0.0310
    186 CG        -38.0620   27.5970    4.8000 C.3     2  PRO2        0.0237
    187 CD        -38.3690   28.1490    6.1690 C.3     2  PRO2        0.0939
    188 N         -38.4550   24.5200    6.5690 N.am    3  GLY3       -0.1941
    189 CA        -37.9660   23.1590    6.7050 C.3     3  GLY3        0.2014
    190 C         -37.3010   22.5710    5.4700 C.2     3  GLY3        0.2639
    191 O         -37.7990   21.6030    4.8870 O.2     3  GLY3       -0.2714
    192 N         -36.1730   23.1350    5.0610 N.am    4  PHE4       -0.1959
    193 CA        -35.4870   22.6040    3.8810 C.3     4  PHE4        0.1771
    194 C         -35.0470   21.1540    4.0960 C.2     4  PHE4        0.2620
    195 O         -34.5350   20.7940    5.1550 O.2     4  PHE4       -0.2715
    196 CB        -34.2760   23.4870    3.5160 C.3     4  PHE4        0.0574
    197 CG        -34.6560   24.8250    2.9550 C.ar    4  PHE4       -0.0200
    198 CD1       -35.1630   24.9290    1.6620 C.ar    4  PHE4       -0.0042
    199 CD2       -34.5480   25.9820    3.7290 C.ar    4  PHE4       -0.0042
    200 CE1       -35.5580   26.1640    1.1440 C.ar    4  PHE4       -0.0003
    201 CE2       -34.9370   27.2180    3.2240 C.ar    4  PHE4       -0.0003
    202 CZ        -35.4450   27.3150    1.9320 C.ar    4  PHE4       -0.0000
    203 N         -35.2750   20.3090    3.0930 N.am    5  GLY5       -0.1940
    204 CA        -34.8700   18.9180    3.2050 C.3     5  GLY5        0.2014
    205 C         -35.8320   18.0120    3.9620 C.2     5  GLY5        0.2638
    206 O         -35.4900   16.8670    4.2650 O.2     5  GLY5       -0.2714
    207 N         -37.0160   18.5250    4.2890 N.am    6  PHE6       -0.1973
    208 CA        -38.0330   17.7400    4.9820 C.3     6  PHE6        0.1639
    209 C         -39.2360   17.5380    4.0550 C.2     6  PHE6        0.2290
    210 O         -40.0400   18.4520    3.8570 O.2     6  PHE6       -0.2864
    211 CB        -38.4890   18.4410    6.2700 C.3     6  PHE6        0.0560
    212 CG        -37.4810   18.3750    7.3830 C.ar    6  PHE6       -0.0200
    213 CD1       -36.4150   19.2700    7.4330 C.ar    6  PHE6       -0.0042
    214 CD2       -37.5830   17.3960    8.3650 C.ar    6  PHE6       -0.0042
    215 CE1       -35.4650   19.1850    8.4480 C.ar    6  PHE6       -0.0003
    216 CE2       -36.6400   17.2990    9.3830 C.ar    6  PHE6       -0.0003
    217 CZ        -35.5760   18.1980    9.4260 C.ar    6  PHE6       -0.0000
    218 N         -36.3130   31.5510   10.0390 N.3     1  LEU1       -0.1231
    219 CA        -35.1120   30.7710   10.3020 C.3     1  LEU1        0.1693
    220 C         -34.9660   29.7250    9.2020 C.2     1  LEU1        0.2592
    221 O         -35.9460   29.1050    8.8090 O.2     1  LEU1       -0.2718
    222 CB        -35.2440   30.0500   11.6430 C.3     1  LEU1        0.0284
    223 CG        -34.2800   28.8860   11.9020 C.3     1  LEU1        0.0019
    224 CD1       -32.8920   29.4300   12.1800 C.3     1  LEU1        0.0001
    225 CD2       -34.7610   28.0540   13.0740 C.3     1  LEU1        0.0001
    226 N         -33.7610   29.5480    8.6750 N.am    2  VAL2       -0.1966
    227 CA        -33.5580   28.5040    7.6700 C.3     2  VAL2        0.1727
    228 C         -32.3420   27.6990    8.0780 C.2     2  VAL2        0.2617
    229 O         -31.5050   28.1610    8.8600 O.2     2  VAL2       -0.2715
    230 CB        -33.3470   29.0460    6.2220 C.3     2  VAL2        0.0290
    231 CG1       -34.5280   29.9170    5.8000 C.3     2  VAL2        0.0023
    232 CG2       -32.0260   29.7870    6.1020 C.3     2  VAL2        0.0023
    233 N         -32.2490   26.4810    7.5610 N.am    3  GLY3       -0.1940
    234 CA        -31.1170   25.6410    7.8840 C.3     3  GLY3        0.2014
    235 C         -30.7790   24.7920    6.6790 C.2     3  GLY3        0.2639
    236 O         -31.4560   23.8070    6.4020 O.2     3  GLY3       -0.2714
    237 N         -29.7430   25.1840    5.9510 N.am    4  LEU4       -0.1963
    238 CA        -29.3320   24.4340    4.7730 C.3     4  LEU4        0.1728
    239 C         -27.9970   23.7330    4.9830 C.2     4  LEU4        0.2617
    240 O         -27.5700   22.9430    4.1420 O.2     4  LEU4       -0.2715
    241 CB        -29.2830   25.3710    3.5660 C.3     4  LEU4        0.0311
    242 CG        -30.7230   25.6960    3.1380 C.3     4  LEU4        0.0022
    243 CD2       -30.8580   27.1370    2.7410 C.3     4  LEU4        0.0001
    244 CD1       -31.1280   24.7690    2.0170 C.3     4  LEU4        0.0001
    245 N         -27.3540   23.9960    6.1180 N.am    5  SER5       -0.1936
    246 CA        -26.0680   23.3830    6.4450 C.3     5  SER5        0.2055
    247 C         -26.1080   21.8610    6.2910 C.2     5  SER5        0.2643
    248 O         -26.9530   21.1700    6.8370 O.2     5  SER5       -0.2714
    249 CB        -25.7270   23.7400    7.8960 C.3     5  SER5        0.2130
    250 OG        -25.2960   25.0980    7.9670 O.3     5  SER5       -0.2179
    251 N         -25.1820   21.3520    5.4650 N.am    6  ARG6       -0.1963
    252 CA        -25.0330   19.9090    5.3540 C.3     6  ARG6        0.1729
    253 C         -26.1600   19.2370    4.5520 C.2     6  ARG6        0.2616
    254 O         -26.1660   18.0350    4.3680 O.2     6  ARG6       -0.2715
    255 CB        -24.9650   19.3410    6.7810 C.3     6  ARG6        0.0348
    256 CG        -23.5990   19.5580    7.4410 C.3     6  ARG6        0.0492
    257 CD        -23.3770   18.6090    8.6260 C.3     6  ARG6        0.2205
    258 NE        -23.1390   17.2420    8.1530 N.pl3   6  ARG6       -0.0865
    259 CZ        -23.6280   16.2360    8.9020 C.cat   6  ARG6        0.5346
    260 NH2       -24.2960   16.4990   10.0120 N.pl3   6  ARG6        0.1354
    261 NH1       -23.4470   14.9720    8.5100 N.pl3   6  ARG6        0.1354
    262 N         -27.1470   20.0400    4.0830 N.am    7  LYS7       -0.1963
    263 CA        -28.3500   19.4500    3.4570 C.3     7  LYS7        0.1728
    264 C         -28.1070   18.8980    2.0460 C.2     7  LYS7        0.2616
    265 O         -27.1780   19.2730    1.3290 O.2     7  LYS7       -0.2715
    266 CB        -29.4350   20.5310    3.4200 C.3     7  LYS7        0.0311
    267 CG        -29.9150   20.9200    4.8200 C.3     7  LYS7        0.0038
    268 CD        -30.9030   19.9050    5.4000 C.3     7  LYS7        0.0206
    269 CE        -31.2890   20.2220    6.8490 C.3     7  LYS7        0.1093
    270 NZ        -32.3230   21.2550    6.8690 N.3     7  LYS7       -0.1314
    271 N         -28.9750   17.9320    1.6520 N.am    8  ARG8       -0.1977
    272 CA        -28.8390   17.3340    0.3300 C.3     8  ARG8        0.1597
    273 C         -28.9020   18.3790   -0.7960 C.2     8  ARG8        0.2287
    274 O         -28.1690   18.3300   -1.7740 O.2     8  ARG8       -0.2864
    275 CB        -29.9470   16.2880    0.1220 C.3     8  ARG8        0.0334
    276 CG        -29.9860   15.2240    1.2190 C.3     8  ARG8        0.0492
    277 CD        -30.7420   13.9640    0.7860 C.3     8  ARG8        0.2205
    278 NE        -30.1480   13.4290   -0.4370 N.pl3   8  ARG8       -0.0865
    279 CZ        -30.3900   12.1420   -0.7780 C.cat   8  ARG8        0.5346
    280 NH2       -31.1880   11.3780   -0.0500 N.pl3   8  ARG8        0.1354
    281 NH1       -29.8080   11.6480   -1.8740 N.pl3   8  ARG8        0.1354
    282 N         -21.4370   15.0800    3.1790 N.3     1  PRO1       -0.2116
    283 CA        -22.1970   16.0580    3.9640 C.3     1  PRO1        0.1372
    284 C         -21.3600   16.9810    4.8490 C.2     1  PRO1        0.2244
    285 O         -21.7530   18.1190    5.1040 O.2     1  PRO1       -0.2868
    286 CB        -23.1420   15.1820    4.7830 C.3     1  PRO1        0.0268
    287 CG        -23.3570   13.9960    3.8890 C.3     1  PRO1        0.0207
    288 CD        -21.9570   13.7190    3.4070 C.3     1  PRO1        0.0892
    289 N         -29.6040   28.3590   10.9910 N.3     1  ARG1       -0.1231
    290 CA        -29.2540   27.1830   11.7790 C.3     1  ARG1        0.1694
    291 C         -28.0280   26.6170   11.0630 C.2     1  ARG1        0.2592
    292 O         -28.1430   26.1070    9.9470 O.2     1  ARG1       -0.2718
    293 CB        -30.4060   26.1680   11.7640 C.3     1  ARG1        0.0321
    294 CG        -30.1760   24.9810   12.6820 C.3     1  ARG1        0.0489
    295 CD        -31.4070   24.0950   12.7860 C.3     1  ARG1        0.2205
    296 NE        -31.1750   22.9760   13.6960 N.pl3   1  ARG1       -0.0865
    297 CZ        -30.5480   21.8550   13.3600 C.cat   1  ARG1        0.5346
    298 NH1       -30.0900   21.6950   12.1270 N.pl3   1  ARG1        0.1354
    299 NH2       -30.3760   20.8960   14.2580 N.pl3   1  ARG1        0.1354
    300 N         -26.8620   26.7000   11.6980 N.am    2  VAL2       -0.1966
    301 CA        -25.6260   26.2630   11.0560 C.3     2  VAL2        0.1727
    302 C         -24.7490   25.3210   11.8630 C.2     2  VAL2        0.2616
    303 O         -24.8630   25.2460   13.0820 O.2     2  VAL2       -0.2715
    304 CB        -24.7430   27.4870   10.7030 C.3     2  VAL2        0.0290
    305 CG1       -25.5420   28.5040    9.8990 C.3     2  VAL2        0.0023
    306 CG2       -24.2270   28.1390   11.9850 C.3     2  VAL2        0.0023
    307 N         -23.8580   24.6160   11.1620 N.am    3  HIS3       -0.1973
    308 CA        -22.9180   23.7110   11.8060 C.3     3  HIS3        0.1656
    309 C         -21.5530   24.3770   11.9560 C.2     3  HIS3        0.2291
    310 O         -20.9530   24.3170   13.0230 O.2     3  HIS3       -0.2864
    311 CB        -22.7890   22.4070   11.0130 C.3     3  HIS3        0.0771
    312 CG        -23.8710   21.4210   11.3180 C.ar    3  HIS3        0.0820
    313 ND1       -23.7870   20.5260   12.3630 N.ar    3  HIS3       -0.2267
    314 CD2       -25.0900   21.2350   10.7600 C.ar    3  HIS3        0.1154
    315 CE1       -24.9080   19.8310   12.4360 C.ar    3  HIS3        0.1986
    316 NE2       -25.7150   20.2420   11.4750 N.ar    3  HIS3       -0.2212
@<TRIPOS>UNITY_ATOM_ATTR
53 1
charge -1
71 1
charge -1
91 1
charge -1
126 1
charge -1
179 1
charge -1
@<TRIPOS>BOND
     1     1     2    1
     2     2     3    1
     3     2     5    1
     4     3     4    2
     5     5     6    1
     6     6     7    1
     7     6     8    1
     8     9    10    1
     9    10    13    1
    10    10    11    1
    11    11    12    2
    12    11    16   am
    13    13    15    1
    14    13    14    1
    15    16    17    1
    16    17    18    1
    17    17    20    1
    18    18    24   am
    19    18    19    2
    20    20    21    1
    21    21    23    1
    22    21    22    1
    23    24    25    1
    24    25    28    1
    25    25    26    1
    26    26    27    2
    27    26    32   am
    28    28    29    1
    29    29    31   am
    30    29    30    2
    31    32    33    1
    32    33    34    1
    33    33    36    1
    34    34    40   am
    35    34    35    2
    36    36    37    1
    37    37    39    1
    38    37    38    1
    39    40    41    1
    40    41    44    1
    41    41    42    1
    42    42    43    2
    43    44    46    1
    44    44    45    1
    45    47    48    1
    46    48    51    1
    47    48    49    1
    48    49    50    2
    49    51    52    1
    50    52    54   ar
    51    52    53   ar
    52    55    56    1
    53    56    57    1
    54    57    58    2
    55    57    59   am
    56    59    60    1
    57    60    61    1
    58    60    63    1
    59    61    64   am
    60    61    62    2
    61    64    65    1
    62    65    66    1
    63    65    68    1
    64    66    73   am
    65    66    67    2
    66    68    69    1
    67    69    70    1
    68    70    72   ar
    69    70    71   ar
    70    73    74    1
    71    74    75    1
    72    74    77    1
    73    75    76    2
    74    77    78    1
    75    79    80    1
    76    80    83    1
    77    80    81    1
    78    81    82    2
    79    83    84    1
    80    85    86    1
    81    86    89    1
    82    86    87    1
    83    87    88    2
    84    89    90    1
    85    90    92   ar
    86    90    91   ar
    87    93    94    1
    88    94    97    1
    89    94    95    1
    90    95    96    2
    91    97    98    1
    92    98    99    1
    93    99   100    1
    94   100   101    2
    95   101   103    1
    96   101   102    1
    97   104   105    1
    98   105   108    1
    99   105   106    1
   100   106   107    2
   101   108   109    1
   102   109   111    1
   103   109   110    1
   104   112   113    1
   105   113   116    1
   106   113   114    1
   107   114   120   am
   108   114   115    2
   109   116   117    1
   110   117   118    2
   111   117   119   am
   112   120   121    1
   113   121   122    1
   114   121   124    1
   115   122   123    2
   116   122   128   am
   117   124   125    1
   118   125   126   ar
   119   125   127   ar
   120   128   129    1
   121   129   130    1
   122   129   132    1
   123   130   131    2
   124   132   133    1
   125   132   134    1
   126   135   136    1
   127   136   137    1
   128   136   139    1
   129   137   138    2
   130   139   140    1
   131   139   141    1
   132   142   143    1
   133   143   144    1
   134   143   146    1
   135   144   145    2
   136   146   147    1
   137   147   148    1
   138   148   149    1
   139   150   151    1
   140   151   152    1
   141   151   154    1
   142   152   153    2
   143   154   155    1
   144   155   156    1
   145   156   157    1
   146   158   159    1
   147   158   164    1
   148   159   160    1
   149   159   162    1
   150   160   161    2
   151   162   163    1
   152   163   164    1
   153   165   166    1
   154   166   167    1
   155   166   169    1
   156   167   168    2
   157   169   170    1
   158   170   171    1
   159   171   172    1
   160   173   174    1
   161   174   175    1
   162   174   177    1
   163   175   181   am
   164   175   176    2
   165   177   178    1
   166   178   179   ar
   167   178   180   ar
   168   181   182    1
   169   181   187    1
   170   182   185    1
   171   182   183    1
   172   183   184    2
   173   183   188   am
   174   185   186    1
   175   186   187    1
   176   188   189    1
   177   189   190    1
   178   190   191    2
   179   190   192   am
   180   192   193    1
   181   193   196    1
   182   193   194    1
   183   194   203   am
   184   194   195    2
   185   196   197    1
   186   197   198   ar
   187   197   199   ar
   188   198   200   ar
   189   199   201   ar
   190   200   202   ar
   191   201   202   ar
   192   203   204    1
   193   204   205    1
   194   205   206    2
   195   205   207   am
   196   207   208    1
   197   208   209    1
   198   208   211    1
   199   209   210    2
   200   211   212    1
   201   212   213   ar
   202   212   214   ar
   203   213   215   ar
   204   214   216   ar
   205   215   217   ar
   206   216   217   ar
   207   218   219    1
   208   219   220    1
   209   219   222    1
   210   220   226   am
   211   220   221    2
   212   222   223    1
   213   223   224    1
   214   223   225    1
   215   226   227    1
   216   227   230    1
   217   227   228    1
   218   228   233   am
   219   228   229    2
   220   230   231    1
   221   230   232    1
   222   233   234    1
   223   234   235    1
   224   235   237   am
   225   235   236    2
   226   237   238    1
   227   238   241    1
   228   238   239    1
   229   239   240    2
   230   239   245   am
   231   241   242    1
   232   242   244    1
   233   242   243    1
   234   245   246    1
   235   246   247    1
   236   246   249    1
   237   247   251   am
   238   247   248    2
   239   249   250    1
   240   251   252    1
   241   252   253    1
   242   252   255    1
   243   253   262   am
   244   253   254    2
   245   255   256    1
   246   256   257    1
   247   257   258    1
   248   258   259    2
   249   259   261    1
   250   259   260    1
   251   262   263    1
   252   263   264    1
   253   263   266    1
   254   264   265    2
   255   264   271   am
   256   266   267    1
   257   267   268    1
   258   268   269    1
   259   269   270    1
   260   271   272    1
   261   272   273    1
   262   272   275    1
   263   273   274    2
   264   275   276    1
   265   276   277    1
   266   277   278    1
   267   278   279    2
   268   279   281    1
   269   279   280    1
   270   282   288    1
   271   282   283    1
   272   283   286    1
   273   283   284    1
   274   284   285    2
   275   286   287    1
   276   287   288    1
   277   289   290    1
   278   290   291    1
   279   290   293    1
   280   291   292    2
   281   291   300   am
   282   293   294    1
   283   294   295    1
   284   295   296    1
   285   296   297    2
   286   297   298    1
   287   297   299    1
   288   300   301    1
   289   301   304    1
   290   301   302    1
   291   302   307   am
   292   302   303    2
   293   304   305    1
   294   304   306    1
   295   307   308    1
   296   308   311    1
   297   308   309    1
   298   309   310    2
   299   311   312    1
   300   312   314   ar
   301   312   313   ar
   302   313   315   ar
   303   314   316   ar
   304   315   316   ar
