@<TRIPOS>MOLECULE
./3h39/protein.pdb
 204 194 0 0 0
SMALL
GASTEIGER

@<TRIPOS>ATOM
      1 N          39.5300   15.8860   82.6460 N.3     1  VAL1       -0.1231
      2 CA         40.4730   15.7630   81.5330 C.3     1  VAL1        0.1692
      3 C          41.6530   16.7060   81.6080 C.2     1  VAL1        0.2593
      4 O          41.7110   17.5890   82.4580 O.2     1  VAL1       -0.2718
      5 CB         39.7910   16.0110   80.1670 C.3     1  VAL1        0.0266
      6 CG1        38.8150   14.8730   79.7990 C.3     1  VAL1        0.0020
      7 CG2        39.1130   17.3480   80.1670 C.3     1  VAL1        0.0020
      8 N          42.5970   16.4910   80.6980 N.am    2  GLY2       -0.1942
      9 CA         43.7910   17.3150   80.5770 C.3     2  GLY2        0.2014
     10 C          44.8410   17.2470   81.6800 C.2     2  GLY2        0.2639
     11 O          45.2610   16.1650   82.1470 O.2     2  GLY2       -0.2714
     12 N          45.2490   18.4370   82.1060 N.am    3  GLY3       -0.1939
     13 CA         46.3910   18.6000   82.9790 C.3     3  GLY3        0.2014
     14 C          46.2850   17.8360   84.2720 C.2     3  GLY3        0.2639
     15 O          47.2830   17.3070   84.7310 O.2     3  GLY3       -0.2714
     16 N          45.0960   17.7820   84.8720 N.am    4  PHE4       -0.1959
     17 CA         44.9560   17.0980   86.1540 C.3     4  PHE4        0.1771
     18 C          45.2130   15.6100   85.9810 C.2     4  PHE4        0.2619
     19 O          45.7680   14.9470   86.8640 O.2     4  PHE4       -0.2715
     20 CB         43.5700   17.3120   86.7720 C.3     4  PHE4        0.0574
     21 CG         43.2970   16.4050   87.9450 C.ar    4  PHE4       -0.0200
     22 CD2        43.5520   16.8290   89.2370 C.ar    4  PHE4       -0.0042
     23 CD1        42.8350   15.1070   87.7530 C.ar    4  PHE4       -0.0042
     24 CE2        43.3370   15.9790   90.3260 C.ar    4  PHE4       -0.0003
     25 CE1        42.6220   14.2530   88.8300 C.ar    4  PHE4       -0.0003
     26 CZ         42.8710   14.6930   90.1190 C.ar    4  PHE4       -0.0000
     27 N          44.7990   15.0760   84.8360 N.am    5  VAL5       -0.1963
     28 CA         44.9190   13.6580   84.6420 C.3     5  VAL5        0.1727
     29 C          46.3780   13.3810   84.5270 C.2     5  VAL5        0.2616
     30 O          46.8940   12.4110   85.0660 O.2     5  VAL5       -0.2715
     31 CB         44.1670   13.1910   83.4110 C.3     5  VAL5        0.0290
     32 CG1        44.3580   11.6860   83.2160 C.3     5  VAL5        0.0023
     33 CG2        42.6880   13.5200   83.5790 C.3     5  VAL5        0.0023
     34 N          47.0550   14.2790   83.8400 N.am    6  ARG6       -0.1963
     35 CA         48.4810   14.1520   83.6430 C.3     6  ARG6        0.1729
     36 C          49.2370   14.2590   84.9680 C.2     6  ARG6        0.2616
     37 O          50.0690   13.4080   85.2860 O.2     6  ARG6       -0.2715
     38 CB         48.9730   15.2290   82.6890 C.3     6  ARG6        0.0348
     39 CG         50.4860   15.2830   82.6290 C.3     6  ARG6        0.0492
     40 CD         50.9470   16.6330   82.1870 C.3     6  ARG6        0.2205
     41 NE         50.5280   17.6950   83.0870 N.pl3   6  ARG6       -0.0865
     42 CZ         50.0460   18.8640   82.6840 C.cat   6  ARG6        0.5346
     43 NH1        49.9010   19.1100   81.3940 N.pl3   6  ARG6        0.1354
     44 NH2        49.7140   19.7870   83.5700 N.pl3   6  ARG6        0.1354
     45 N          48.9580   15.3080   85.7330 N.am    7  ASP7       -0.1973
     46 CA         49.6540   15.5160   86.9860 C.3     7  ASP7        0.1651
     47 C          49.3350   14.4230   88.0160 C.2     7  ASP7        0.2291
     48 O          50.2040   14.0130   88.7830 O.2     7  ASP7       -0.2864
     49 CB         49.3660   16.9120   87.5330 C.3     7  ASP7        0.0714
     50 CG         49.9390   18.0020   86.6570 C.2     7  ASP7        0.0525
     51 OD1        50.9180   17.7190   85.9370 O.co2   7  ASP7       -0.5491
     52 OD2        49.4190   19.1390   86.6850 O.co2   7  ASP7       -0.5491
     53 N          50.4710   17.9510   92.2180 N.3     1  LYS1       -0.1231
     54 CA         49.2250   18.5600   92.6630 C.3     1  LYS1        0.1693
     55 C          48.6560   19.4870   91.5760 C.2     1  LYS1        0.2592
     56 O          49.4010   20.1630   90.8570 O.2     1  LYS1       -0.2718
     57 CB         49.4770   19.3490   93.9540 C.3     1  LYS1        0.0285
     58 CG         48.5020   19.0590   95.0870 C.3     1  LYS1        0.0035
     59 CD         48.6250   20.0850   96.2090 C.3     1  LYS1        0.0206
     60 CE         48.1400   21.4670   95.7660 C.3     1  LYS1        0.1093
     61 NZ         47.6210   22.2750   96.9160 N.3     1  LYS1       -0.1314
     62 N          47.3330   19.5050   91.4530 N.am    2  ASN2       -0.1974
     63 CA         46.6540   20.3780   90.5070 C.3     2  ASN2        0.1688
     64 C          45.3360   20.7700   91.1450 C.2     2  ASN2        0.2292
     65 O          44.6860   19.9320   91.7610 O.2     2  ASN2       -0.2864
     66 CB         46.4060   19.6360   89.1910 C.3     2  ASN2        0.1181
     67 CG         46.3190   20.5660   87.9830 C.2     2  ASN2        0.2629
     68 OD1        46.0040   21.7640   88.0980 O.2     2  ASN2       -0.2716
     69 ND2        46.6020   20.0100   86.8070 N.am    2  ASN2       -0.0877
     70 N          43.3470   23.0860   89.2650 N.3     1  ASP1       -0.1227
     71 CA         42.6880   23.6490   88.1090 C.3     1  ASP1        0.1748
     72 C          42.1880   22.4490   87.3330 C.2     1  ASP1        0.2596
     73 O          42.9010   21.9200   86.4760 O.2     1  ASP1       -0.2718
     74 CB         43.6790   24.4610   87.2830 C.3     1  ASP1        0.0701
     75 CG         43.0340   25.6640   86.6150 C.2     1  ASP1        0.0523
     76 OD2        43.2380   26.7950   87.1090 O.co2   1  ASP1       -0.5491
     77 OD1        42.3130   25.4820   85.6070 O.co2   1  ASP1       -0.5491
     78 N          40.9890   21.9900   87.6520 N.am    2  ILE2       -0.1966
     79 CA         40.4540   20.7860   87.0510 C.3     2  ILE2        0.1727
     80 C          39.4060   21.0090   85.9960 C.2     2  ILE2        0.2616
     81 O          38.4410   21.6860   86.2150 O.2     2  ILE2       -0.2715
     82 CB         39.8430   19.8920   88.0990 C.3     2  ILE2        0.0290
     83 CG1        38.5240   20.4720   88.5810 C.3     2  ILE2        0.0022
     84 CG2        40.7760   19.7530   89.2680 C.3     2  ILE2        0.0023
     85 CD1        38.5730   20.9690   89.9970 C.3     2  ILE2        0.0001
     86 N          39.6320   20.3840   84.8520 N.am    3  ASP3       -0.1973
     87 CA         38.7810   20.4730   83.6660 C.3     3  ASP3        0.1651
     88 C          37.8260   19.2840   83.5970 C.2     3  ASP3        0.2291
     89 O          38.2720   18.1290   83.5470 O.2     3  ASP3       -0.2864
     90 CB         39.6160   20.4570   82.3840 C.3     3  ASP3        0.0714
     91 CG         40.3650   21.7230   82.1520 C.2     3  ASP3        0.0525
     92 OD2        40.2800   22.6480   82.9810 O.co2   3  ASP3       -0.5491
     93 OD1        41.0500   21.7940   81.1160 O.co2   3  ASP3       -0.5491
     94 N          36.2920   23.9820   85.7610 N.3     1  ASP1       -0.1241
     95 CA         35.7990   24.3550   84.4370 C.3     1  ASP1        0.1616
     96 C          35.0710   23.2110   83.7000 C.2     1  ASP1        0.2264
     97 O          35.5490   22.0830   83.6480 O.2     1  ASP1       -0.2867
     98 CB         36.9490   24.8530   83.5860 C.3     1  ASP1        0.0687
     99 CG         37.4880   26.1790   84.0540 C.2     1  ASP1        0.0522
    100 OD1        36.7280   27.1610   84.1050 O.co2   1  ASP1       -0.5491
    101 OD2        38.6890   26.2410   84.3580 O.co2   1  ASP1       -0.5491
    102 N          43.3200   17.4510   70.9660 N.3     1  ARG1       -0.1231
    103 CA         44.1900   18.1120   71.9150 C.3     1  ARG1        0.1694
    104 C          45.6260   18.1370   71.4450 C.2     1  ARG1        0.2592
    105 O          45.8860   17.7760   70.3050 O.2     1  ARG1       -0.2718
    106 CB         44.0500   17.4670   73.2780 C.3     1  ARG1        0.0321
    107 CG         42.8260   17.9700   74.0080 C.3     1  ARG1        0.0489
    108 CD         42.4450   17.0240   75.1320 C.3     1  ARG1        0.2205
    109 NE         41.0560   17.2150   75.5100 N.pl3   1  ARG1       -0.0865
    110 CZ         40.6440   18.1440   76.3610 C.cat   1  ARG1        0.5346
    111 NH1        39.3480   18.2520   76.6350 N.pl3   1  ARG1        0.1354
    112 NH2        41.5250   18.9590   76.9440 N.pl3   1  ARG1        0.1354
    113 N          46.5640   18.6550   72.2510 N.am    2  ASP2       -0.1976
    114 CA         47.9490   18.8610   71.7630 C.3     2  ASP2        0.1651
    115 C          49.0010   17.7380   71.8720 C.2     2  ASP2        0.2291
    116 O          49.5250   17.2970   70.8490 O.2     2  ASP2       -0.2864
    117 CB         48.5240   20.1450   72.3730 C.3     2  ASP2        0.0714
    118 CG         48.5740   20.0980   73.8880 C.2     2  ASP2        0.0525
    119 OD1        48.1800   19.0640   74.4660 O.co2   2  ASP2       -0.5491
    120 OD2        49.0080   21.0970   74.5010 O.co2   2  ASP2       -0.5491
    121 N          48.6710   15.0080   77.5540 N.3     1  ASN1       -0.1225
    122 CA         47.5890   15.9620   77.8640 C.3     1  ASN1        0.1785
    123 C          46.2210   15.5280   77.2740 C.2     1  ASN1        0.2597
    124 O          45.2250   16.2460   77.3370 O.2     1  ASN1       -0.2718
    125 CB         47.9420   17.3740   77.3820 C.3     1  ASN1        0.1169
    126 CG         49.1570   17.9780   78.0950 C.2     1  ASN1        0.2627
    127 OD1        49.5120   17.5910   79.2070 O.2     1  ASN1       -0.2716
    128 ND2        49.7840   18.9610   77.4470 N.am    1  ASN1       -0.0877
    129 N          46.1580   14.3430   76.7170 N.am    2  ALA2       -0.1979
    130 CA         44.9810   13.8680   76.0410 C.3     2  ALA2        0.1597
    131 C          44.3460   12.6590   76.6500 C.2     2  ALA2        0.2287
    132 O          43.9310   11.8050   75.9370 O.2     2  ALA2       -0.2864
    133 CB         45.2920   13.5920   74.6410 C.3     2  ALA2        0.0319
    134 N          54.2430   25.2570   73.0960 N.3     1  ARG1       -0.1245
    135 CA         53.7770   24.3790   74.1680 C.3     1  ARG1        0.1563
    136 C          54.6780   23.1560   74.3470 C.2     1  ARG1        0.2260
    137 O          55.0810   22.8510   75.4730 O.2     1  ARG1       -0.2867
    138 CB         52.2960   24.0070   73.9970 C.3     1  ARG1        0.0307
    139 CG         51.3400   25.1520   74.3340 C.3     1  ARG1        0.0489
    140 CD         49.8650   24.8490   73.9900 C.3     1  ARG1        0.2205
    141 NE         49.3170   23.7380   74.7500 N.pl3   1  ARG1       -0.0865
    142 CZ         48.9210   23.8390   76.0130 C.cat   1  ARG1        0.5346
    143 NH2        48.4420   22.7740   76.6520 N.pl3   1  ARG1        0.1354
    144 NH1        49.0100   25.0120   76.6330 N.pl3   1  ARG1        0.1354
    145 N          57.8630   24.0480   76.2960 N.3     1  ARG1       -0.1231
    146 CA         57.5710   24.3340   77.6870 C.3     1  ARG1        0.1694
    147 C          57.3820   23.0670   78.5210 C.2     1  ARG1        0.2592
    148 O          57.9120   22.9740   79.6200 O.2     1  ARG1       -0.2718
    149 CB         56.3190   25.2050   77.7810 C.3     1  ARG1        0.0321
    150 CG         56.0200   25.6520   79.1850 C.3     1  ARG1        0.0489
    151 CD         54.9240   26.6650   79.2310 C.3     1  ARG1        0.2205
    152 NE         53.6330   26.0370   79.4540 N.pl3   1  ARG1       -0.0865
    153 CZ         52.5340   26.4130   78.8230 C.cat   1  ARG1        0.5346
    154 NH2        51.3800   25.8100   79.0620 N.pl3   1  ARG1        0.1354
    155 NH1        52.6050   27.3870   77.9310 N.pl3   1  ARG1        0.1354
    156 N          56.6080   22.1030   78.0170 N.am    2  PHE2       -0.1976
    157 CA         56.3260   20.8760   78.7700 C.3     2  PHE2        0.1639
    158 C          57.5210   19.9510   78.8150 C.2     2  PHE2        0.2290
    159 O          57.8200   19.3790   79.8510 O.2     2  PHE2       -0.2864
    160 CB         55.1320   20.1090   78.1950 C.3     2  PHE2        0.0560
    161 CG         53.8270   20.7660   78.4280 C.ar    2  PHE2       -0.0200
    162 CD1        52.9630   21.0040   77.3770 C.ar    2  PHE2       -0.0042
    163 CD2        53.4600   21.1660   79.6980 C.ar    2  PHE2       -0.0042
    164 CE1        51.7540   21.6300   77.5940 C.ar    2  PHE2       -0.0003
    165 CE2        52.2640   21.7860   79.9140 C.ar    2  PHE2       -0.0003
    166 CZ         51.4080   22.0140   78.8670 C.ar    2  PHE2       -0.0000
    167 N          59.6500   21.4820   81.4550 N.3     1  ARG1       -0.1245
    168 CA         59.1070   21.3950   82.7840 C.3     1  ARG1        0.1563
    169 C          59.3620   20.0750   83.4390 C.2     1  ARG1        0.2260
    170 O          59.8210   20.0050   84.5510 O.2     1  ARG1       -0.2867
    171 CB         57.6180   21.5470   82.7250 C.3     1  ARG1        0.0307
    172 CG         57.0170   21.2520   84.0120 C.3     1  ARG1        0.0489
    173 CD         55.5760   21.2040   83.9190 C.3     1  ARG1        0.2205
    174 NE         55.0620   22.4170   83.3660 N.pl3   1  ARG1       -0.0865
    175 CZ         53.7880   22.7220   83.3160 C.cat   1  ARG1        0.5346
    176 NH1        53.4200   23.8520   82.7950 N.pl3   1  ARG1        0.1354
    177 NH2        52.8960   21.9120   83.7940 N.pl3   1  ARG1        0.1354
    178 N          51.5890   32.4850   74.8450 N.3     1  GLU1       -0.1245
    179 CA         52.2850   31.2330   74.9880 C.3     1  GLU1        0.1565
    180 C          53.6870   31.5130   75.4970 C.2     1  GLU1        0.2260
    181 O          54.2530   30.7220   76.2530 O.2     1  GLU1       -0.2867
    182 CB         52.2320   30.4290   73.6840 C.3     1  GLU1        0.0329
    183 CG         51.0630   29.4460   73.6790 C.3     1  GLU1        0.0437
    184 CD         51.1860   28.4300   74.8240 C.2     1  GLU1        0.0504
    185 OE1        52.3450   28.1730   75.2420 O.co2   1  GLU1       -0.5492
    186 OE2        50.1540   27.8940   75.3070 O.co2   1  GLU1       -0.5492
    187 N          53.4940   32.4830   79.3450 N.3     1  LYS1       -0.1245
    188 CA         53.3050   31.2390   80.0680 C.3     1  LYS1        0.1561
    189 C          54.6410   30.5100   80.2590 C.2     1  LYS1        0.2260
    190 O          54.8420   29.8510   81.2820 O.2     1  LYS1       -0.2867
    191 CB         52.2740   30.3620   79.3180 C.3     1  LYS1        0.0271
    192 CG         51.4730   29.4200   80.1820 C.3     1  LYS1        0.0035
    193 CD         50.2080   30.0760   80.7630 C.3     1  LYS1        0.0206
    194 CE         48.9360   29.7450   79.9590 C.3     1  LYS1        0.1093
    195 NZ         48.6270   28.2670   79.9280 N.3     1  LYS1       -0.1314
    196 N          57.2330   29.8310   84.1420 N.3     1  GLU1       -0.1245
    197 CA         57.6140   28.4760   84.5200 C.3     1  GLU1        0.1565
    198 C          58.7100   28.5420   85.5450 C.2     1  GLU1        0.2260
    199 O          59.2050   29.6330   85.8380 O.2     1  GLU1       -0.2867
    200 CB         58.1120   27.7130   83.3070 C.3     1  GLU1        0.0329
    201 CG         57.0280   27.2960   82.3500 C.3     1  GLU1        0.0437
    202 CD         56.3430   26.0000   82.7550 C.2     1  GLU1        0.0504
    203 OE1        55.1010   25.9590   82.6600 O.co2   1  GLU1       -0.5492
    204 OE2        57.0400   25.0330   83.1530 O.co2   1  GLU1       -0.5492
@<TRIPOS>UNITY_ATOM_ATTR
51 1
charge -1
76 1
charge -1
92 1
charge -1
100 1
charge -1
119 1
charge -1
185 1
charge -1
203 1
charge -1
@<TRIPOS>BOND
     1     1     2    1
     2     2     5    1
     3     2     3    1
     4     3     8   am
     5     3     4    2
     6     5     6    1
     7     5     7    1
     8     8     9    1
     9     9    10    1
    10    10    12   am
    11    10    11    2
    12    12    13    1
    13    13    14    1
    14    14    15    2
    15    14    16   am
    16    16    17    1
    17    17    18    1
    18    17    20    1
    19    18    27   am
    20    18    19    2
    21    20    21    1
    22    21    23   ar
    23    21    22   ar
    24    22    24   ar
    25    23    25   ar
    26    24    26   ar
    27    25    26   ar
    28    27    28    1
    29    28    31    1
    30    28    29    1
    31    29    34   am
    32    29    30    2
    33    31    32    1
    34    31    33    1
    35    34    35    1
    36    35    38    1
    37    35    36    1
    38    36    37    2
    39    36    45   am
    40    38    39    1
    41    39    40    1
    42    40    41    1
    43    41    42    2
    44    42    43    1
    45    42    44    1
    46    45    46    1
    47    46    49    1
    48    46    47    1
    49    47    48    2
    50    49    50    1
    51    50    51   ar
    52    50    52   ar
    53    53    54    1
    54    54    55    1
    55    54    57    1
    56    55    56    2
    57    55    62   am
    58    57    58    1
    59    58    59    1
    60    59    60    1
    61    60    61    1
    62    62    63    1
    63    63    66    1
    64    63    64    1
    65    64    65    2
    66    66    67    1
    67    67    69   am
    68    67    68    2
    69    70    71    1
    70    71    74    1
    71    71    72    1
    72    72    73    2
    73    72    78   am
    74    74    75    1
    75    75    77   ar
    76    75    76   ar
    77    78    79    1
    78    79    80    1
    79    79    82    1
    80    80    86   am
    81    80    81    2
    82    82    83    1
    83    82    84    1
    84    83    85    1
    85    86    87    1
    86    87    90    1
    87    87    88    1
    88    88    89    2
    89    90    91    1
    90    91    93   ar
    91    91    92   ar
    92    94    95    1
    93    95    98    1
    94    95    96    1
    95    96    97    2
    96    98    99    1
    97    99   100   ar
    98    99   101   ar
    99   102   103    1
   100   103   104    1
   101   103   106    1
   102   104   105    2
   103   104   113   am
   104   106   107    1
   105   107   108    1
   106   108   109    1
   107   109   110    2
   108   110   111    1
   109   110   112    1
   110   113   114    1
   111   114   115    1
   112   114   117    1
   113   115   116    2
   114   117   118    1
   115   118   119   ar
   116   118   120   ar
   117   121   122    1
   118   122   123    1
   119   122   125    1
   120   123   129   am
   121   123   124    2
   122   125   126    1
   123   126   128   am
   124   126   127    2
   125   129   130    1
   126   130   133    1
   127   130   131    1
   128   131   132    2
   129   134   135    1
   130   135   138    1
   131   135   136    1
   132   136   137    2
   133   138   139    1
   134   139   140    1
   135   140   141    1
   136   141   142    2
   137   142   144    1
   138   142   143    1
   139   145   146    1
   140   146   149    1
   141   146   147    1
   142   147   156   am
   143   147   148    2
   144   149   150    1
   145   150   151    1
   146   151   152    1
   147   152   153    2
   148   153   155    1
   149   153   154    1
   150   156   157    1
   151   157   160    1
   152   157   158    1
   153   158   159    2
   154   160   161    1
   155   161   162   ar
   156   161   163   ar
   157   162   164   ar
   158   163   165   ar
   159   164   166   ar
   160   165   166   ar
   161   167   168    1
   162   168   171    1
   163   168   169    1
   164   169   170    2
   165   171   172    1
   166   172   173    1
   167   173   174    1
   168   174   175    2
   169   175   176    1
   170   175   177    1
   171   178   179    1
   172   179   182    1
   173   179   180    1
   174   180   181    2
   175   182   183    1
   176   183   184    1
   177   184   185   ar
   178   184   186   ar
   179   187   188    1
   180   188   191    1
   181   188   189    1
   182   189   190    2
   183   191   192    1
   184   192   193    1
   185   193   194    1
   186   194   195    1
   187   196   197    1
   188   197   200    1
   189   197   198    1
   190   198   199    2
   191   200   201    1
   192   201   202    1
   193   202   203   ar
   194   202   204   ar
