@<TRIPOS>MOLECULE
./1j9k/protein.pdb
 180 176 0 0 0
SMALL
GASTEIGER

@<TRIPOS>ATOM
      1 N          16.2410   32.6960   12.1720 N.3     1  ASP1       -0.1227
      2 CA         16.4880   33.4340   10.9380 C.3     1  ASP1        0.1748
      3 C          16.2020   34.9220   11.0900 C.2     1  ASP1        0.2595
      4 O          16.3050   35.6760   10.1290 O.2     1  ASP1       -0.2718
      5 CB         15.6570   32.8610    9.7800 C.3     1  ASP1        0.0701
      6 CG         14.1760   33.1830    9.8890 C.2     1  ASP1        0.0523
      7 OD1        13.4260   32.7790    8.9770 O.co2   1  ASP1       -0.5491
      8 OD2        13.7540   33.8300   10.8680 O.co2   1  ASP1       -0.5491
      9 N          15.8430   35.3400   12.2990 N.am    2  ASP2       -0.1976
     10 CA         15.5430   36.7480   12.5560 C.3     2  ASP2        0.1651
     11 C          16.7470   37.5240   13.0740 C.2     2  ASP2        0.2291
     12 O          16.7410   38.7540   13.0990 O.2     2  ASP2       -0.2864
     13 CB         14.3970   36.8590   13.5610 C.3     2  ASP2        0.0714
     14 CG         13.1000   36.2770   13.0300 C.2     2  ASP2        0.0525
     15 OD1        12.5610   36.8310   12.0520 O.co2   2  ASP2       -0.5491
     16 OD2        12.6250   35.2670   13.5840 O.co2   2  ASP2       -0.5491
     17 N          18.7270   40.2210    9.5610 N.3     1  GLU1       -0.1245
     18 CA         17.4680   39.6460    9.1060 C.3     1  GLU1        0.1565
     19 C          17.7150   38.5880    8.0380 C.2     1  GLU1        0.2260
     20 O          18.3200   38.8680    7.0010 O.2     1  GLU1       -0.2867
     21 CB         16.5630   40.7460    8.5340 C.3     1  GLU1        0.0329
     22 CG         15.2460   40.2320    7.9740 C.3     1  GLU1        0.0437
     23 CD         14.3650   39.6020    9.0400 C.2     1  GLU1        0.0504
     24 OE2        13.6780   40.3490    9.7690 O.co2   1  GLU1       -0.5492
     25 OE1        14.3710   38.3580    9.1570 O.co2   1  GLU1       -0.5492
     26 N          15.0000   36.2470    7.3040 N.3     1  SER1       -0.1202
     27 CA         13.6990   35.6660    7.0180 C.3     1  SER1        0.2020
     28 C          13.5500   35.5590    5.4950 C.2     1  SER1        0.2618
     29 O          14.0070   36.4340    4.7490 O.2     1  SER1       -0.2717
     30 CB         12.5800   36.5400    7.6040 C.3     1  SER1        0.2103
     31 OG         12.6170   36.5410    9.0250 O.3     1  SER1       -0.2182
     32 N          12.9260   34.4710    5.0510 N.am    2  ALA2       -0.1979
     33 CA         12.6910   34.2000    3.6330 C.3     2  ALA2        0.1597
     34 C          13.9560   33.8640    2.8500 C.2     2  ALA2        0.2287
     35 O          13.9760   33.9560    1.6230 O.2     2  ALA2       -0.2864
     36 CB         11.9610   35.3820    2.9780 C.3     2  ALA2        0.0319
     37 N          10.4260   31.4440   15.8850 N.3     1  ASN1       -0.1225
     38 CA         10.1290   32.4030   14.8350 C.3     1  ASN1        0.1785
     39 C           8.8560   33.1990   15.0830 C.2     1  ASN1        0.2597
     40 O           7.9050   32.7050   15.6860 O.2     1  ASN1       -0.2718
     41 CB         10.0120   31.6930   13.4830 C.3     1  ASN1        0.1169
     42 CG          9.8330   32.6680   12.3320 C.2     1  ASN1        0.2627
     43 OD1        10.7080   33.4810   12.0580 O.2     1  ASN1       -0.2716
     44 ND2         8.6930   32.5950   11.6610 N.am    1  ASN1       -0.0877
     45 N           8.8550   34.4450   14.6230 N.am    2  ARG2       -0.1966
     46 CA          7.6970   35.3070   14.7820 C.3     2  ARG2        0.1729
     47 C           6.8650   35.0830   13.5230 C.2     2  ARG2        0.2617
     48 O           7.1680   35.6240   12.4590 O.2     2  ARG2       -0.2715
     49 CB          8.1190   36.7730   14.8730 C.3     2  ARG2        0.0348
     50 CG          6.9380   37.7230   14.8890 C.3     2  ARG2        0.0492
     51 CD          7.3540   39.1780   15.0050 C.3     2  ARG2        0.2205
     52 NE          6.1930   40.0540   14.8740 N.pl3   2  ARG2       -0.0865
     53 CZ          6.2330   41.3810   14.9630 C.cat   2  ARG2        0.5346
     54 NH2         7.3840   42.0040   15.1870 N.pl3   2  ARG2        0.1354
     55 NH1         5.1190   42.0870   14.8190 N.pl3   2  ARG2        0.1354
     56 N           5.8230   34.2720   13.6400 N.am    3  GLY3       -0.1941
     57 CA          4.9810   33.9980   12.4930 C.3     3  GLY3        0.1998
     58 C           4.9690   32.5150   12.1700 C.2     3  GLY3        0.2481
     59 O           5.9050   31.7890   12.5100 O.2     3  GLY3       -0.2729
     60 N           3.9200   32.0340   11.4960 N.am    4  PRO4       -0.2715
     61 CA          3.8320   30.6180   11.1540 C.3     4  PRO4        0.1536
     62 C           4.7450   30.1660   10.0200 C.2     4  PRO4        0.2599
     63 O           5.1980   30.9600    9.1970 O.2     4  PRO4       -0.2715
     64 CB          2.3620   30.4490   10.7930 C.3     4  PRO4        0.0310
     65 CG          2.0490   31.7670   10.1080 C.3     4  PRO4        0.0237
     66 CD          2.7320   32.7740   11.0210 C.3     4  PRO4        0.0939
     67 N           5.0150   28.8690   10.0080 N.am    5  ASN5       -0.1959
     68 CA          5.8500   28.2490    8.9960 C.3     5  ASN5        0.1819
     69 C           5.1160   26.9750    8.6450 C.2     5  ASN5        0.2621
     70 O           5.4230   25.8970    9.1540 O.2     5  ASN5       -0.2715
     71 CB          7.2460   27.9750    9.5400 C.3     5  ASN5        0.1195
     72 CG          8.1510   29.1660    9.3710 C.2     5  ASN5        0.2630
     73 OD1         8.3070   29.6720    8.2570 O.2     5  ASN5       -0.2716
     74 ND2         8.7390   29.6370   10.4660 N.am    5  ASN5       -0.0877
     75 N           4.1190   27.1250    7.7810 N.am    6  MET6       -0.1977
     76 CA          3.3070   26.0030    7.3540 C.3     6  MET6        0.1605
     77 C           3.0710   25.9660    5.8540 C.2     6  MET6        0.2287
     78 O           3.2980   26.9470    5.1480 O.2     6  MET6       -0.2864
     79 CB          1.9670   26.0430    8.1080 C.3     6  MET6        0.0413
     80 CG          2.1370   26.2140    9.6230 C.3     6  MET6        0.0598
     81 SD          0.6040   26.1160   10.6010 S.3     6  MET6       -0.1393
     82 CE         -0.0930   27.6890   10.2580 C.3     6  MET6        0.0692
     83 N           5.2150   27.3350    2.4000 N.3     1  ASP1       -0.1227
     84 CA          6.0520   28.4280    2.8710 C.3     1  ASP1        0.1748
     85 C           7.3250   27.9060    3.5270 C.2     1  ASP1        0.2595
     86 O           8.3210   28.6260    3.6310 O.2     1  ASP1       -0.2718
     87 CB          5.2890   29.2780    3.8880 C.3     1  ASP1        0.0701
     88 CG          4.3490   30.2620    3.2340 C.2     1  ASP1        0.0523
     89 OD1         3.9210   30.0060    2.0900 O.co2   1  ASP1       -0.5491
     90 OD2         4.0320   31.2860    3.8700 O.co2   1  ASP1       -0.5491
     91 N           7.3060   26.6520    3.9590 N.am    2  ILE2       -0.1980
     92 CA          8.4900   26.1100    4.6030 C.3     2  ILE2        0.1595
     93 C           9.6730   25.9730    3.6640 C.2     2  ILE2        0.2287
     94 O          10.8080   25.8930    4.1190 O.2     2  ILE2       -0.2864
     95 CB          8.2060   24.7680    5.3020 C.3     2  ILE2        0.0276
     96 CG1         7.9050   23.6770    4.2830 C.3     2  ILE2        0.0022
     97 CG2         7.0320   24.9340    6.2560 C.3     2  ILE2        0.0022
     98 CD1         7.7190   22.3140    4.9270 C.3     2  ILE2        0.0001
     99 N          10.8150   28.2410    1.7560 N.3     1  HIS1       -0.1227
    100 CA         11.6290   29.4510    1.7710 C.3     1  HIS1        0.1749
    101 C          11.8780   29.9670    3.1870 C.2     1  HIS1        0.2597
    102 O          12.4280   31.0490    3.3780 O.2     1  HIS1       -0.2718
    103 CB         11.0210   30.5530    0.8890 C.3     1  HIS1        0.0718
    104 CG          9.6490   30.9840    1.2920 C.2     1  HIS1        0.0650
    105 ND1         8.5290   30.6810    0.5470 N.2     1  HIS1       -0.2310
    106 CD2         9.2180   31.7340    2.3330 C.3     1  HIS1        0.1683
    107 CE1         7.4680   31.2280    1.1110 C.2     1  HIS1        0.1939
    108 NE2         7.8580   31.8740    2.1960 N.2     1  HIS1       -0.2440
    109 N          11.4970   29.1640    4.1770 N.am    2  SER2       -0.1938
    110 CA         11.6750   29.5270    5.5790 C.3     2  SER2        0.2055
    111 C          13.1100   29.3350    6.0690 C.2     2  SER2        0.2644
    112 O          13.6650   28.2390    5.9800 O.2     2  SER2       -0.2714
    113 CB         10.7540   28.6890    6.4610 C.3     2  SER2        0.2130
    114 OG         11.0530   28.8980    7.8290 O.3     2  SER2       -0.2179
    115 N          13.6960   30.4050    6.5970 N.am    3  GLY3       -0.1939
    116 CA         15.0530   30.3230    7.0970 C.3     3  GLY3        0.2014
    117 C          15.0460   29.5150    8.3800 C.2     3  GLY3        0.2639
    118 O          15.9800   28.7630    8.6540 O.2     3  GLY3       -0.2714
    119 N          13.9820   29.6680    9.1670 N.am    4  THR4       -0.1950
    120 CA         13.8450   28.9460   10.4340 C.3     4  THR4        0.1897
    121 C          13.8670   27.4470   10.1800 C.2     4  THR4        0.2313
    122 O          14.5740   26.6970   10.8540 O.2     4  THR4       -0.2863
    123 CB         12.5110   29.2700   11.1390 C.3     4  THR4        0.1794
    124 OG1        12.4210   30.6760   11.3700 O.3     4  THR4       -0.2208
    125 CG2        12.4140   28.5300   12.4730 C.3     4  THR4        0.0378
    126 N           2.0740   36.2780   13.7490 N.3     1  TYR1       -0.1241
    127 CA          3.0290   37.3530   13.5220 C.3     1  TYR1        0.1605
    128 C           2.7140   38.6080   14.3280 C.2     1  TYR1        0.2264
    129 O           3.5900   39.1660   14.9900 O.2     1  TYR1       -0.2867
    130 CB          3.0830   37.7110   12.0370 C.3     1  TYR1        0.0534
    131 CG          4.2360   38.6250   11.6990 C.ar    1  TYR1       -0.0201
    132 CD2         5.5420   38.1400   11.6650 C.ar    1  TYR1       -0.0009
    133 CD1         4.0290   39.9840   11.4580 C.ar    1  TYR1       -0.0009
    134 CE2         6.6180   38.9830   11.4030 C.ar    1  TYR1        0.0417
    135 CE1         5.0980   40.8380   11.1960 C.ar    1  TYR1        0.0417
    136 CZ          6.3900   40.3290   11.1700 C.ar    1  TYR1        0.1957
    137 OH          7.4530   41.1640   10.9120 O.3     1  TYR1       -0.2866
    138 N          -0.8090   24.9710    1.9440 N.3     1  ARG1       -0.1231
    139 CA         -1.0560   26.3860    2.1750 C.3     1  ARG1        0.1694
    140 C          -0.0090   27.1560    1.3820 C.2     1  ARG1        0.2592
    141 O           1.1700   26.8080    1.3920 O.2     1  ARG1       -0.2718
    142 CB         -0.9170   26.7110    3.6580 C.3     1  ARG1        0.0321
    143 CG         -1.3840   28.1030    4.0370 C.3     1  ARG1        0.0489
    144 CD         -1.1760   28.3410    5.5170 C.3     1  ARG1        0.2205
    145 NE         -1.7380   29.6120    5.9490 N.pl3   1  ARG1       -0.0865
    146 CZ         -1.3160   30.2890    7.0110 C.cat   1  ARG1        0.5346
    147 NH2        -0.3200   29.8130    7.7480 N.pl3   1  ARG1        0.1354
    148 NH1        -1.8860   31.4420    7.3360 N.pl3   1  ARG1        0.1354
    149 N          -0.4460   28.1990    0.6890 N.am    2  ARG2       -0.1966
    150 CA          0.4620   29.0050   -0.1110 C.3     2  ARG2        0.1729
    151 C          -0.1150   30.4010   -0.2740 C.2     2  ARG2        0.2616
    152 O          -0.9840   30.8010    0.5040 O.2     2  ARG2       -0.2715
    153 CB          0.6700   28.3330   -1.4660 C.3     2  ARG2        0.0348
    154 CG         -0.6240   27.9340   -2.1410 C.3     2  ARG2        0.0492
    155 CD         -0.4000   26.8800   -3.2170 C.3     2  ARG2        0.2205
    156 NE         -1.6190   26.6090   -3.9700 N.pl3   2  ARG2       -0.0865
    157 CZ         -2.7200   26.0650   -3.4530 C.cat   2  ARG2        0.5346
    158 NH2        -2.7650   25.7220   -2.1690 N.pl3   2  ARG2        0.1354
    159 NH1        -3.7880   25.8700   -4.2220 N.pl3   2  ARG2        0.1354
    160 N           0.3410   31.1360   -1.2850 N.am    3  TRP3       -0.1974
    161 CA         -0.1620   32.4890   -1.4950 C.3     3  TRP3        0.1637
    162 C          -0.5560   32.9030   -2.9060 C.2     3  TRP3        0.2290
    163 O          -0.0590   32.3760   -3.8980 O.2     3  TRP3       -0.2864
    164 CB          0.8780   33.5170   -1.0280 C.3     3  TRP3        0.0539
    165 CG          1.3150   33.3920    0.3900 C.2     3  TRP3       -0.0137
    166 CD1         2.1370   32.4370    0.9170 C.2     3  TRP3        0.0907
    167 CD2         0.9330   34.2410    1.4770 C.3     3  TRP3        0.0819
    168 NE1         2.2870   32.6400    2.2680 N.2     3  TRP3       -0.2482
    169 CE2         1.5580   33.7410    2.6370 C.2     3  TRP3        0.0665
    170 CE3         0.1190   35.3790    1.5810 C.2     3  TRP3       -0.0164
    171 CZ2         1.3970   34.3370    3.8930 C.2     3  TRP3        0.0153
    172 CZ3        -0.0430   35.9740    2.8310 C.2     3  TRP3       -0.0038
    173 CH2         0.5950   35.4500    3.9690 C.2     3  TRP3        0.0009
    174 N          -3.1300   34.8790    1.6280 N.3     1  VAL1       -0.1245
    175 CA         -2.9820   33.4570    1.8790 C.3     1  VAL1        0.1561
    176 C          -4.0650   32.5890    1.2370 C.2     1  VAL1        0.2260
    177 O          -5.2080   33.0150    1.0470 O.2     1  VAL1       -0.2867
    178 CB         -2.9690   33.1740    3.3920 C.3     1  VAL1        0.0252
    179 CG2        -4.3330   33.4910    3.9920 C.3     1  VAL1        0.0019
    180 CG1        -2.5930   31.7260    3.6520 C.3     1  VAL1        0.0019
@<TRIPOS>UNITY_ATOM_ATTR
7 1
charge -1
15 1
charge -1
24 1
charge -1
89 1
charge -1
@<TRIPOS>BOND
     1     1     2    1
     2     2     5    1
     3     2     3    1
     4     3     4    2
     5     3     9   am
     6     5     6    1
     7     6     7   ar
     8     6     8   ar
     9     9    10    1
    10    10    11    1
    11    10    13    1
    12    11    12    2
    13    13    14    1
    14    14    15   ar
    15    14    16   ar
    16    17    18    1
    17    18    19    1
    18    18    21    1
    19    19    20    2
    20    21    22    1
    21    22    23    1
    22    23    25   ar
    23    23    24   ar
    24    26    27    1
    25    27    28    1
    26    27    30    1
    27    28    29    2
    28    28    32   am
    29    30    31    1
    30    32    33    1
    31    33    34    1
    32    33    36    1
    33    34    35    2
    34    37    38    1
    35    38    41    1
    36    38    39    1
    37    39    45   am
    38    39    40    2
    39    41    42    1
    40    42    44   am
    41    42    43    2
    42    45    46    1
    43    46    47    1
    44    46    49    1
    45    47    48    2
    46    47    56   am
    47    49    50    1
    48    50    51    1
    49    51    52    1
    50    52    53    2
    51    53    55    1
    52    53    54    1
    53    56    57    1
    54    57    58    1
    55    58    60   am
    56    58    59    2
    57    60    66    1
    58    60    61    1
    59    61    62    1
    60    61    64    1
    61    62    63    2
    62    62    67   am
    63    64    65    1
    64    65    66    1
    65    67    68    1
    66    68    69    1
    67    68    71    1
    68    69    75   am
    69    69    70    2
    70    71    72    1
    71    72    73    2
    72    72    74   am
    73    75    76    1
    74    76    77    1
    75    76    79    1
    76    77    78    2
    77    79    80    1
    78    80    81    1
    79    81    82    1
    80    83    84    1
    81    84    85    1
    82    84    87    1
    83    85    86    2
    84    85    91   am
    85    87    88    1
    86    88    89   ar
    87    88    90   ar
    88    91    92    1
    89    92    93    1
    90    92    95    1
    91    93    94    2
    92    95    96    1
    93    95    97    1
    94    96    98    1
    95    99   100    1
    96   100   103    1
    97   100   101    1
    98   101   102    2
    99   101   109   am
   100   103   104    1
   101   104   105    2
   102   104   106    1
   103   105   107    1
   104   106   108    1
   105   107   108    2
   106   109   110    1
   107   110   111    1
   108   110   113    1
   109   111   112    2
   110   111   115   am
   111   113   114    1
   112   115   116    1
   113   116   117    1
   114   117   118    2
   115   117   119   am
   116   119   120    1
   117   120   121    1
   118   120   123    1
   119   121   122    2
   120   123   124    1
   121   123   125    1
   122   126   127    1
   123   127   130    1
   124   127   128    1
   125   128   129    2
   126   130   131    1
   127   131   133   ar
   128   131   132   ar
   129   132   134   ar
   130   133   135   ar
   131   134   136   ar
   132   135   136   ar
   133   136   137    1
   134   138   139    1
   135   139   140    1
   136   139   142    1
   137   140   149   am
   138   140   141    2
   139   142   143    1
   140   143   144    1
   141   144   145    1
   142   145   146    2
   143   146   148    1
   144   146   147    1
   145   149   150    1
   146   150   153    1
   147   150   151    1
   148   151   160   am
   149   151   152    2
   150   153   154    1
   151   154   155    1
   152   155   156    1
   153   156   157    2
   154   157   159    1
   155   157   158    1
   156   160   161    1
   157   161   162    1
   158   161   164    1
   159   162   163    2
   160   164   165    1
   161   165   166    2
   162   165   167    1
   163   166   168    1
   164   167   170    1
   165   167   169    1
   166   168   169    2
   167   169   171    1
   168   170   172    2
   169   171   173    2
   170   172   173    1
   171   174   175    1
   172   175   176    1
   173   175   178    1
   174   176   177    2
   175   178   180    1
   176   178   179    1
