@<TRIPOS>MOLECULE
./1hfc/ligand.pdb
 25 25 0 0 0
SMALL
GASTEIGER

@<TRIPOS>ATOM
      1  C1        21.1420   23.3300   26.8000 C.2     1  PLH1        0.2842
      2  N1        20.4910   24.4210   27.0410 N.am    1  PLH1        0.0385
      3  O1        19.1430   24.1650   27.2030 O.2     1  PLH1       -0.1531
      4  C2        22.6380   23.4260   26.4960 C.3     1  PLH1        0.0995
      5  N2        25.0010   22.0420   24.3280 N.am    1  PLH1       -0.1974
      6  O2        20.7600   22.1410   26.7350 O.2     1  PLH1       -0.2698
      7  C3        22.9780   23.1650   24.9880 C.3     1  PLH1        0.0874
      8  N3        27.8780   23.1290   22.7000 N.am    1  PLH1       -0.2021
      9  O3        25.0240   24.2730   24.8060 O.2     1  PLH1       -0.2733
     10  C4        22.1780   24.0470   23.9970 C.3     1  PLH1        0.0096
     11  O4        26.3960   21.6290   21.8480 O.2     1  PLH1       -0.2715
     12  C5        22.2300   23.6020   22.4980 C.3     1  PLH1        0.0005
     13  C6        21.5760   22.2700   22.2320 C.3     1  PLH1        0.0000
     14  C7        21.5770   24.6900   21.6610 C.3     1  PLH1        0.0000
     15  C8        24.4540   23.2130   24.6480 C.2     1  PLH1        0.2418
     16  C9        26.4650   21.9820   24.2310 C.3     1  PLH1        0.1770
     17  C10       26.8650   22.2310   22.8270 C.2     1  PLH1        0.2616
     18  C11       28.3790   23.4890   21.4220 C.3     1  PLH1        0.1386
     19  C12       26.9070   20.5340   24.5860 C.3     1  PLH1        0.0574
     20  C13       28.4110   20.3870   24.5400 C.ar    1  PLH1       -0.0200
     21  C14       29.1820   20.8350   25.6090 C.ar    1  PLH1       -0.0042
     22  C15       30.5860   20.6820   25.5580 C.ar    1  PLH1       -0.0003
     23  C16       31.1310   20.2000   24.3970 C.ar    1  PLH1       -0.0000
     24  C17       30.4180   19.6040   23.4160 C.ar    1  PLH1       -0.0003
     25  C18       29.0030   19.6880   23.4810 C.ar    1  PLH1       -0.0042
@<TRIPOS>BOND
     1     1     2    1
     2     1     4    1
     3     1     6    2
     4     2     3    2
     5     4     7    1
     6     5    15   am
     7     5    16    1
     8     7    10    1
     9     7    15    1
    10     8    17   am
    11     8    18    1
    12     9    15    2
    13    10    12    1
    14    11    17    2
    15    12    13    1
    16    12    14    1
    17    16    17    1
    18    16    19    1
    19    19    20    1
    20    20    21   ar
    21    20    25   ar
    22    21    22   ar
    23    22    23   ar
    24    23    24   ar
    25    24    25   ar
