@<TRIPOS>MOLECULE
./7cpa/ligand.pdb
 41 43 0 0 0
SMALL
GASTEIGER

@<TRIPOS>ATOM
      1  CA2       49.3870   15.2350   36.9420 C.3     1  FVF1        0.1804
      2  CA3       48.1640   18.5170   38.1860 C.3     1  FVF1        0.2006
      3  CA4       48.0680   20.6970   34.7510 C.3     1  FVF1        0.1643
      4  OA1       51.1200   15.1080   39.1360 O.3     1  FVF1       -0.4285
      5  CB1       52.4530   15.0610   39.5900 C.3     1  FVF1        0.2368
      6  CB2       48.9550   14.5660   35.5970 C.3     1  FVF1        0.0575
      7  CB3       49.2950   19.1450   39.1790 C.3     1  FVF1        0.0320
      8  CB4       49.0220   21.6400   34.0230 C.3     1  FVF1        0.0622
      9  CG1       53.2970   16.2260   39.4890 C.ar    1  FVF1        0.0213
     10  CG2       50.0130   13.8520   34.9140 C.ar    1  FVF1       -0.0200
     11  CG4       48.5830   22.3320   32.8510 C.ar    1  FVF1       -0.0193
     12  CGD       50.4830   19.6330   38.3730 C.3     1  FVF1        0.0024
     13  CGN       49.7240   17.9690   40.0920 C.3     1  FVF1        0.0024
     14  CD5       47.8680   23.4720   32.9580 C.ar    1  FVF1       -0.0042
     15  CD6       48.8680   21.8260   31.6320 C.ar    1  FVF1       -0.0042
     16  CDB       54.2900   16.2700   38.5730 C.ar    1  FVF1       -0.0007
     17  CDC       53.1230   17.2780   40.3170 C.ar    1  FVF1       -0.0007
     18  CDL       50.0950   12.5020   34.9800 C.ar    1  FVF1       -0.0042
     19  CDM       50.9490   14.5400   34.2240 C.ar    1  FVF1       -0.0042
     20  CE5       47.4560   24.1150   31.8440 C.ar    1  FVF1       -0.0003
     21  CE6       48.4400   22.4590   30.5200 C.ar    1  FVF1       -0.0003
     22  CEB       55.0970   17.3480   38.4740 C.ar    1  FVF1       -0.0002
     23  CEC       53.9570   18.3430   40.2510 C.ar    1  FVF1       -0.0002
     24  CEL       51.1000   11.8490   34.3540 C.ar    1  FVF1       -0.0003
     25  CEM       51.9640   13.8890   33.6110 C.ar    1  FVF1       -0.0003
     26  CZ1       54.9380   18.3810   39.3240 C.ar    1  FVF1       -0.0000
     27  CZ2       52.0350   12.5410   33.6680 C.ar    1  FVF1       -0.0000
     28  CZ4       47.7330   23.6040   30.6250 C.ar    1  FVF1       -0.0000
     29  P3        47.3970   19.5450   37.0120 P.3     1  FVF1        0.3890
     30  C1        50.4520   14.0170   38.8320 C.2     1  FVF1        0.4219
     31  O1        50.5660   13.0150   39.5110 O.2     1  FVF1       -0.2245
     32  C2        48.4850   16.2040   37.5840 C.2     1  FVF1        0.2622
     33  N2        49.6990   14.0610   37.6930 N.am    1  FVF1       -0.1607
     34  O2        47.5610   15.9270   38.2770 O.2     1  FVF1       -0.2715
     35  N3        48.8200   17.5150   37.4010 N.am    1  FVF1       -0.1932
     36  C4        47.7100   19.6540   33.7850 C.2     1  FVF1        0.0782
     37  O4        48.5170   18.7790   33.8180 O.co2   1  FVF1       -0.5467
     38  O11       46.6550   19.5700   33.0140 O.co2   1  FVF1       -0.5467
     39  OPV       46.3340   18.6230   36.2450 O.3     1  FVF1       -0.1383
     40  OPW       46.8510   20.7440   37.7920 O.2     1  FVF1       -0.2537
     41  OPX       48.5740   20.1600   35.9900 O.3     1  FVF1       -0.2880
@<TRIPOS>UNITY_ATOM_ATTR
37 1
charge -1
@<TRIPOS>BOND
     1     1     6    1
     2     1    32    1
     3     1    33    1
     4     2     7    1
     5     2    29    1
     6     2    35    1
     7     3     8    1
     8     3    36    1
     9     3    41    1
    10     4     5    1
    11     4    30    1
    12     5     9    1
    13     6    10    1
    14     7    12    1
    15     7    13    1
    16     8    11    1
    17     9    16   ar
    18     9    17   ar
    19    10    18   ar
    20    10    19   ar
    21    11    14   ar
    22    11    15   ar
    23    14    20   ar
    24    15    21   ar
    25    16    22   ar
    26    17    23   ar
    27    18    24   ar
    28    19    25   ar
    29    20    28   ar
    30    21    28   ar
    31    22    26   ar
    32    23    26   ar
    33    24    27   ar
    34    25    27   ar
    35    29    39    1
    36    29    40    2
    37    29    41    1
    38    30    31    2
    39    30    33   am
    40    32    34    2
    41    32    35   am
    42    36    37   ar
    43    36    38   ar
