@<TRIPOS>MOLECULE
./1hpv/protein.pdb
 127 124 0 0 0
SMALL
GASTEIGER

@<TRIPOS>ATOM
      1 N          10.5100   25.1730    5.9510 N.3     1  ASP1       -0.1241
      2 CA         11.1480   23.9890    6.4780 C.3     1  ASP1        0.1616
      3 C          12.5310   23.6820    5.9100 C.2     1  ASP1        0.2264
      4 O          12.6370   23.1410    4.8280 O.2     1  ASP1       -0.2867
      5 CB         10.2020   22.8230    6.2030 C.3     1  ASP1        0.0687
      6 CG         10.3540   21.7060    7.1820 C.2     1  ASP1        0.0522
      7 OD2        11.4480   21.5020    7.7230 O.co2   1  ASP1       -0.5491
      8 OD1         9.3500   21.0350    7.4280 O.co2   1  ASP1       -0.5491
      9 N          14.4400   21.4020    7.0070 N.3     1  GLY1       -0.1210
     10 CA         14.6400   19.9660    7.0830 C.3     1  GLY1        0.1956
     11 C          13.9580   19.1860    5.9710 C.2     1  GLY1        0.2612
     12 O          14.0930   17.9680    5.9120 O.2     1  GLY1       -0.2717
     13 N          13.2190   19.8830    5.1070 N.am    2  ALA2       -0.1965
     14 CA         12.5060   19.2700    3.9810 C.3     2  ALA2        0.1728
     15 C          13.2380   19.5460    2.6710 C.2     2  ALA2        0.2616
     16 O          13.4700   20.6990    2.3210 O.2     2  ALA2       -0.2715
     17 CB         11.0760   19.8280    3.8990 C.3     2  ALA2        0.0334
     18 N          13.5620   18.4980    1.9180 N.am    3  ASP3       -0.1959
     19 CA         14.2600   18.6960    0.6490 C.3     3  ASP3        0.1783
     20 C          13.3260   19.2770   -0.4060 C.2     3  ASP3        0.2620
     21 O          13.7570   20.0730   -1.2470 O.2     3  ASP3       -0.2715
     22 CB         14.8520   17.3840    0.1260 C.3     3  ASP3        0.0728
     23 CG         15.8670   16.7740    1.0740 C.2     3  ASP3        0.0526
     24 OD2        16.6890   17.4970    1.6750 O.co2   3  ASP3       -0.5491
     25 OD1        15.8310   15.5440    1.2260 O.co2   3  ASP3       -0.5491
     26 N          12.0600   18.8560   -0.3730 N.am    4  ASP4       -0.1973
     27 CA         11.0470   19.3040   -1.3300 C.3     4  ASP4        0.1651
     28 C           9.8570   19.9930   -0.6880 C.2     4  ASP4        0.2291
     29 O           9.6660   19.9340    0.5260 O.2     4  ASP4       -0.2864
     30 CB         10.5440   18.1300   -2.1640 C.3     4  ASP4        0.0714
     31 CG         11.5330   17.6990   -3.2150 C.2     4  ASP4        0.0525
     32 OD1        11.8450   18.4930   -4.1360 O.co2   4  ASP4       -0.5491
     33 OD2        11.9980   16.5520   -3.1180 O.co2   4  ASP4       -0.5491
     34 N           5.9710   20.2940   -0.0360 N.3     1  VAL1       -0.1245
     35 CA          4.8200   19.4020    0.0310 C.3     1  VAL1        0.1561
     36 C           3.6190   20.1890    0.5140 C.2     1  VAL1        0.2260
     37 O           3.6220   20.7600    1.5940 O.2     1  VAL1       -0.2867
     38 CB          5.0410   18.2170    0.9980 C.3     1  VAL1        0.0252
     39 CG1         4.0300   17.1440    0.7170 C.3     1  VAL1        0.0019
     40 CG2         6.4310   17.6650    0.8420 C.3     1  VAL1        0.0019
     41 N           6.9460    9.9770   -0.8700 N.3     1  ILE1       -0.1231
     42 CA          7.8380   10.7200   -0.0080 C.3     1  ILE1        0.1692
     43 C           8.0520    9.9890    1.3080 C.2     1  ILE1        0.2593
     44 O           7.1340    9.3620    1.8380 O.2     1  ILE1       -0.2718
     45 CB          7.2240   12.1320    0.2690 C.3     1  ILE1        0.0266
     46 CG1         7.1550   12.9270   -1.0370 C.3     1  ILE1        0.0019
     47 CG2         8.0160   12.8980    1.2880 C.3     1  ILE1        0.0020
     48 CD1         8.4690   12.9690   -1.8010 C.3     1  ILE1        0.0001
     49 N           9.2640   10.0890    1.8390 N.am    2  GLY2       -0.1942
     50 CA          9.5650    9.4660    3.1110 C.3     2  GLY2        0.2014
     51 C           9.7440   10.5290    4.1690 C.2     2  GLY2        0.2639
     52 O          10.5880   11.4110    4.0380 O.2     2  GLY2       -0.2714
     53 N           8.9410   10.4380    5.2140 N.am    3  GLY3       -0.1939
     54 CA          9.0040   11.3930    6.2970 C.3     3  GLY3        0.2014
     55 C           9.3440   10.6750    7.5830 C.2     3  GLY3        0.2639
     56 O           9.8380    9.5540    7.5550 O.2     3  GLY3       -0.2714
     57 N           8.9810   11.2600    8.7150 N.am    4  ILE4       -0.1963
     58 CA          9.3010   10.6650    9.9950 C.3     4  ILE4        0.1727
     59 C           8.4930    9.4410   10.3470 C.2     4  ILE4        0.2617
     60 O           9.0310    8.5070   10.9420 O.2     4  ILE4       -0.2715
     61 CB          9.2100   11.6830   11.1430 C.3     4  ILE4        0.0290
     62 CG1        10.0740   11.2130   12.3140 C.3     4  ILE4        0.0022
     63 CG2         7.7690   11.8450   11.6020 C.3     4  ILE4        0.0023
     64 CD1        10.5770   12.3320   13.1950 C.3     4  ILE4        0.0001
     65 N           7.2200    9.4260    9.9570 N.am    5  GLY5       -0.1940
     66 CA          6.3620    8.3030   10.2960 C.3     5  GLY5        0.2014
     67 C           6.2000    7.2370    9.2300 C.2     5  GLY5        0.2639
     68 O           5.6450    6.1650    9.4780 O.2     5  GLY5       -0.2714
     69 N           6.6740    7.5330    8.0320 N.am    6  GLY6       -0.1939
     70 CA          6.5380    6.5680    6.9750 C.3     6  GLY6        0.2014
     71 C           6.5430    7.2350    5.6250 C.2     6  GLY6        0.2639
     72 O           7.0220    8.3570    5.4770 O.2     6  GLY6       -0.2714
     73 N           5.9100    6.5770    4.6670 N.am    7  PHE7       -0.1959
     74 CA          5.8770    7.0470    3.3050 C.3     7  PHE7        0.1771
     75 C           4.4930    7.4290    2.8180 C.2     7  PHE7        0.2619
     76 O           3.5240    6.7070    3.0590 O.2     7  PHE7       -0.2715
     77 CB          6.4140    5.9450    2.3890 C.3     7  PHE7        0.0574
     78 CG          7.9110    5.7680    2.4350 C.ar    7  PHE7       -0.0200
     79 CD2         8.5170    5.1180    3.5080 C.ar    7  PHE7       -0.0042
     80 CD1         8.7120    6.2420    1.3950 C.ar    7  PHE7       -0.0042
     81 CE2         9.8960    4.9460    3.5450 C.ar    7  PHE7       -0.0003
     82 CE1        10.0890    6.0750    1.4220 C.ar    7  PHE7       -0.0003
     83 CZ         10.6820    5.4270    2.4980 C.ar    7  PHE7       -0.0000
     84 N           4.3920    8.5810    2.1660 N.am    8  ILE8       -0.1977
     85 CA          3.1200    8.9830    1.5870 C.3     8  ILE8        0.1596
     86 C           3.2930    9.0270    0.0660 C.2     8  ILE8        0.2287
     87 O           4.4050    9.1840   -0.4480 O.2     8  ILE8       -0.2864
     88 CB          2.5760   10.3480    2.1120 C.3     8  ILE8        0.0276
     89 CG1         3.5230   11.5110    1.7610 C.3     8  ILE8        0.0022
     90 CG2         2.2940   10.2510    3.5970 C.3     8  ILE8        0.0022
     91 CD1         2.9460   12.8720    2.0590 C.3     8  ILE8        0.0001
     92 N          -1.1810   14.1150    1.0770 N.3     1  PRO1       -0.2102
     93 CA         -1.5850   14.0400    2.4840 C.3     1  PRO1        0.1504
     94 C          -0.6290   14.5130    3.5700 C.2     1  PRO1        0.2576
     95 O          -0.4470   13.8210    4.5730 O.2     1  PRO1       -0.2718
     96 CB         -1.9290   12.5630    2.6430 C.3     1  PRO1        0.0282
     97 CG         -0.9100   11.9090    1.7530 C.3     1  PRO1        0.0208
     98 CD         -0.9450   12.7710    0.5210 C.3     1  PRO1        0.0893
     99 N          -0.0190   15.6780    3.3920 N.am    2  THR2       -0.1940
    100 CA          0.8650   16.2020    4.4220 C.3     2  THR2        0.2013
    101 C          -0.0110   16.9120    5.4670 C.2     2  THR2        0.2484
    102 O          -1.0810   17.4150    5.1260 O.2     2  THR2       -0.2729
    103 CB          1.8660   17.1950    3.8420 C.3     2  THR2        0.1807
    104 OG1         2.7210   17.6610    4.8860 O.3     2  THR2       -0.2208
    105 CG2         1.1590   18.3650    3.2390 C.3     2  THR2        0.0379
    106 N           0.4210   16.9490    6.7470 N.am    3  PRO3       -0.2715
    107 CA         -0.3780   17.6210    7.7860 C.3     3  PRO3        0.1536
    108 C          -0.2190   19.1540    7.8320 C.2     3  PRO3        0.2598
    109 O          -1.0780   19.8720    8.3640 O.2     3  PRO3       -0.2715
    110 CB          0.1170   16.9550    9.0710 C.3     3  PRO3        0.0310
    111 CG          1.5680   16.7140    8.7820 C.3     3  PRO3        0.0237
    112 CD          1.5450   16.2000    7.3470 C.3     3  PRO3        0.0939
    113 N           0.8880   19.6440    7.2820 N.am    4  VAL4       -0.1978
    114 CA          1.1890   21.0660    7.2430 C.3     4  VAL4        0.1596
    115 C           1.7700   21.3270    5.8560 C.2     4  VAL4        0.2287
    116 O           2.3990   20.4450    5.2860 O.2     4  VAL4       -0.2864
    117 CB          2.2730   21.4410    8.3200 C.3     4  VAL4        0.0276
    118 CG1         2.3610   22.9420    8.4760 C.3     4  VAL4        0.0022
    119 CG2         1.9630   20.8130    9.6750 C.3     4  VAL4        0.0022
    120 N           4.4840   22.6420    3.6020 N.3     1  ILE1       -0.1245
    121 CA          5.8800   22.9420    3.8840 C.3     1  ILE1        0.1561
    122 C           6.6460   23.3980    2.6490 C.2     1  ILE1        0.2260
    123 O           6.5010   22.8290    1.5750 O.2     1  ILE1       -0.2867
    124 CB          6.6190   21.7330    4.5760 C.3     1  ILE1        0.0252
    125 CG1         6.3790   20.4370    3.8300 C.3     1  ILE1        0.0019
    126 CG2         6.1070   21.5290    5.9860 C.3     1  ILE1        0.0019
    127 CD1         6.9420   19.2590    4.5370 C.3     1  ILE1        0.0001
@<TRIPOS>UNITY_ATOM_ATTR
7 1
charge -1
24 1
charge -1
32 1
charge -1
@<TRIPOS>BOND
     1     1     2    1
     2     2     3    1
     3     2     5    1
     4     3     4    2
     5     5     6    1
     6     6     8   ar
     7     6     7   ar
     8     9    10    1
     9    10    11    1
    10    11    13   am
    11    11    12    2
    12    13    14    1
    13    14    15    1
    14    14    17    1
    15    15    18   am
    16    15    16    2
    17    18    19    1
    18    19    20    1
    19    19    22    1
    20    20    21    2
    21    20    26   am
    22    22    23    1
    23    23    25   ar
    24    23    24   ar
    25    26    27    1
    26    27    30    1
    27    27    28    1
    28    28    29    2
    29    30    31    1
    30    31    32   ar
    31    31    33   ar
    32    34    35    1
    33    35    36    1
    34    35    38    1
    35    36    37    2
    36    38    39    1
    37    38    40    1
    38    41    42    1
    39    42    45    1
    40    42    43    1
    41    43    44    2
    42    43    49   am
    43    45    46    1
    44    45    47    1
    45    46    48    1
    46    49    50    1
    47    50    51    1
    48    51    52    2
    49    51    53   am
    50    53    54    1
    51    54    55    1
    52    55    56    2
    53    55    57   am
    54    57    58    1
    55    58    59    1
    56    58    61    1
    57    59    65   am
    58    59    60    2
    59    61    63    1
    60    61    62    1
    61    62    64    1
    62    65    66    1
    63    66    67    1
    64    67    69   am
    65    67    68    2
    66    69    70    1
    67    70    71    1
    68    71    73   am
    69    71    72    2
    70    73    74    1
    71    74    77    1
    72    74    75    1
    73    75    84   am
    74    75    76    2
    75    77    78    1
    76    78    80   ar
    77    78    79   ar
    78    79    81   ar
    79    80    82   ar
    80    81    83   ar
    81    82    83   ar
    82    84    85    1
    83    85    86    1
    84    85    88    1
    85    86    87    2
    86    88    89    1
    87    88    90    1
    88    89    91    1
    89    92    98    1
    90    92    93    1
    91    93    96    1
    92    93    94    1
    93    94    99   am
    94    94    95    2
    95    96    97    1
    96    97    98    1
    97    99   100    1
    98   100   103    1
    99   100   101    1
   100   101   102    2
   101   101   106   am
   102   103   105    1
   103   103   104    1
   104   106   112    1
   105   106   107    1
   106   107   108    1
   107   107   110    1
   108   108   113   am
   109   108   109    2
   110   110   111    1
   111   111   112    1
   112   113   114    1
   113   114   115    1
   114   114   117    1
   115   115   116    2
   116   117   118    1
   117   117   119    1
   118   120   121    1
   119   121   122    1
   120   121   124    1
   121   122   123    2
   122   124   125    1
   123   124   126    1
   124   125   127    1
