@<TRIPOS>MOLECULE
./1hpv/protein.pdb
 169 166 0 0 0
SMALL
GASTEIGER

@<TRIPOS>ATOM
      1 N          13.1200   39.0030    5.1590 N.3     1  PRO1       -0.2102
      2 CA         12.9410   39.4180    6.5750 C.3     1  PRO1        0.1504
      3 C          13.6810   38.4700    7.5060 C.2     1  PRO1        0.2576
      4 O          14.0850   37.3940    7.0870 O.2     1  PRO1       -0.2718
      5 CB         11.4570   39.3900    6.8930 C.3     1  PRO1        0.0282
      6 CG         10.9660   38.5120    5.8560 C.3     1  PRO1        0.0208
      7 CD         11.7460   39.0190    4.6500 C.3     1  PRO1        0.0893
      8 N          13.8780   38.8780    8.7560 N.am    2  GLN2       -0.1966
      9 CA         14.5360   38.0120    9.7170 C.3     2  GLN2        0.1733
     10 C          13.4730   37.3650   10.6010 C.2     2  GLN2        0.2616
     11 O          12.6740   38.0490   11.2460 O.2     2  GLN2       -0.2715
     12 CB         15.5580   38.7500   10.5780 C.3     2  GLN2        0.0408
     13 CG         16.2390   37.7960   11.5450 C.3     2  GLN2        0.0908
     14 CD         17.2020   38.4620   12.4870 C.2     2  GLN2        0.2608
     15 OE1        16.8460   38.8070   13.6220 O.2     2  GLN2       -0.2717
     16 NE2        18.4500   38.5910   12.0540 N.am    2  GLN2       -0.0878
     17 N          13.4640   36.0400   10.6130 N.am    3  ILE3       -0.1963
     18 CA         12.5010   35.2800   11.3840 C.3     3  ILE3        0.1727
     19 C          13.1680   34.5330   12.5280 C.2     3  ILE3        0.2617
     20 O          14.0630   33.7150   12.3250 O.2     3  ILE3       -0.2715
     21 CB         11.7380   34.2620   10.4650 C.3     3  ILE3        0.0290
     22 CG1        11.0770   34.9980    9.2970 C.3     3  ILE3        0.0022
     23 CG2        10.6640   33.5200   11.2440 C.3     3  ILE3        0.0023
     24 CD1        10.1530   34.1360    8.4420 C.3     3  ILE3        0.0001
     25 N          12.7860   34.9040   13.7400 N.am    4  THR4       -0.1937
     26 CA         13.2680   34.2500   14.9360 C.3     4  THR4        0.2028
     27 C          12.3760   32.9890   15.0760 C.2     4  THR4        0.2642
     28 O          11.2380   32.9640   14.6040 O.2     4  THR4       -0.2714
     29 CB         13.1540   35.1980   16.1500 C.3     4  THR4        0.1808
     30 OG1        11.7790   35.5030   16.3920 O.3     4  THR4       -0.2208
     31 CG2        13.9360   36.4830   15.9120 C.3     4  THR4        0.0379
     32 N          12.8700   31.9530   15.7390 N.am    5  LEU5       -0.1977
     33 CA         12.1260   30.6990   15.8360 C.3     5  LEU5        0.1596
     34 C          11.3280   30.3250   17.0940 C.2     5  LEU5        0.2287
     35 O          11.1370   29.1340   17.3710 O.2     5  LEU5       -0.2864
     36 CB         13.0590   29.5370   15.4380 C.3     5  LEU5        0.0297
     37 CG         13.5520   29.5300   13.9830 C.3     5  LEU5        0.0022
     38 CD2        14.7240   28.5690   13.8370 C.3     5  LEU5        0.0001
     39 CD1        12.3980   29.1620   13.0400 C.3     5  LEU5        0.0001
     40 N           7.6950   29.0630   11.9500 N.3     1  PRO1       -0.2102
     41 CA          7.9140   30.0550   10.9020 C.3     1  PRO1        0.1504
     42 C           6.9540   29.8930    9.7300 C.2     1  PRO1        0.2576
     43 O           7.2660   29.2220    8.7470 O.2     1  PRO1       -0.2718
     44 CB          9.3660   29.8170   10.5200 C.3     1  PRO1        0.0282
     45 CG          9.5030   28.3450   10.6770 C.3     1  PRO1        0.0208
     46 CD          8.7320   28.0170   11.9310 C.3     1  PRO1        0.0893
     47 N           5.7750   30.4940    9.8530 N.am    2  LEU2       -0.1966
     48 CA          4.7400   30.4130    8.8190 C.3     2  LEU2        0.1728
     49 C           4.6610   31.6420    7.9210 C.2     2  LEU2        0.2616
     50 O           4.7420   32.7770    8.3950 O.2     2  LEU2       -0.2715
     51 CB          3.3800   30.2090    9.4670 C.3     2  LEU2        0.0311
     52 CG          3.2730   29.0380   10.4320 C.3     2  LEU2        0.0022
     53 CD2         2.0390   29.2450   11.2640 C.3     2  LEU2        0.0001
     54 CD1         3.2110   27.7190    9.6950 C.3     2  LEU2        0.0001
     55 N           4.4700   31.4180    6.6280 N.am    3  VAL3       -0.1977
     56 CA          4.3490   32.5060    5.6810 C.3     3  VAL3        0.1596
     57 C           3.1610   32.3200    4.7750 C.2     3  VAL3        0.2287
     58 O           2.6630   31.2160    4.6020 O.2     3  VAL3       -0.2864
     59 CB          5.5860   32.6560    4.7890 C.3     3  VAL3        0.0276
     60 CG2         6.7290   33.2620    5.5840 C.3     3  VAL3        0.0022
     61 CG1         5.9520   31.3290    4.1680 C.3     3  VAL3        0.0022
     62 N           8.1280   27.3130    6.7210 N.3     1  LEU1       -0.1231
     63 CA          9.4320   27.3450    6.0750 C.3     1  LEU1        0.1693
     64 C          10.2020   26.1970    6.7330 C.2     1  LEU1        0.2592
     65 O          10.5440   26.2610    7.9140 O.2     1  LEU1       -0.2718
     66 CB         10.1160   28.6780    6.3240 C.3     1  LEU1        0.0284
     67 CG          9.2800   29.8660    5.8830 C.3     1  LEU1        0.0019
     68 CD2         9.9800   31.1370    6.2760 C.3     1  LEU1        0.0001
     69 CD1         9.0570   29.7790    4.3870 C.3     1  LEU1        0.0001
     70 N          10.5100   25.1730    5.9510 N.am    2  ASP2       -0.1962
     71 CA         11.1480   23.9890    6.4780 C.3     2  ASP2        0.1783
     72 C          12.5310   23.6820    5.9100 C.2     2  ASP2        0.2620
     73 O          12.6370   23.1410    4.8280 O.2     2  ASP2       -0.2715
     74 CB         10.2020   22.8230    6.2030 C.3     2  ASP2        0.0728
     75 CG         10.3540   21.7060    7.1820 C.2     2  ASP2        0.0526
     76 OD2        11.4480   21.5020    7.7230 O.co2   2  ASP2       -0.5491
     77 OD1         9.3500   21.0350    7.4280 O.co2   2  ASP2       -0.5491
     78 N          13.5790   23.9480    6.6820 N.am    3  THR3       -0.1951
     79 CA         14.9350   23.6730    6.2350 C.3     3  THR3        0.1897
     80 C          15.2450   22.1610    6.2710 C.2     3  THR3        0.2313
     81 O          16.1830   21.6830    5.6330 O.2     3  THR3       -0.2863
     82 CB         15.9380   24.4490    7.0870 C.3     3  THR3        0.1794
     83 OG1        15.7220   24.1660    8.4840 O.3     3  THR3       -0.2208
     84 CG2        15.7400   25.9400    6.8620 C.3     3  THR3        0.0378
     85 N           5.8820   33.3660   -2.4080 N.3     1  ILE1       -0.1231
     86 CA          6.1070   33.2700   -0.9690 C.3     1  ILE1        0.1692
     87 C           6.4510   34.6880   -0.5920 C.2     1  ILE1        0.2592
     88 O           7.4860   35.1960   -1.0110 O.2     1  ILE1       -0.2718
     89 CB          7.2900   32.3430   -0.6900 C.3     1  ILE1        0.0266
     90 CG1         7.0860   31.0140   -1.4250 C.3     1  ILE1        0.0019
     91 CG2         7.4510   32.1350    0.8050 C.3     1  ILE1        0.0020
     92 CD1         8.3460   30.1790   -1.5810 C.3     1  ILE1        0.0001
     93 N           5.5980   35.3210    0.2050 N.am    2  CYS2       -0.1970
     94 CA          5.7810   36.7310    0.5550 C.3     2  CYS2        0.1712
     95 C           5.6530   37.4670   -0.7900 C.2     2  CYS2        0.2296
     96 O           4.7110   37.2010   -1.5350 O.2     2  CYS2       -0.2864
     97 CB          7.1510   36.9930    1.2140 C.3     2  CYS2        0.0983
     98 SG          7.2010   36.8670    3.0230 S.3     2  CYS2       -0.0798
     99 N           8.0640   37.3060   -2.9630 N.3     1  HIS1       -0.1241
    100 CA          9.0350   36.5770   -3.7500 C.3     1  HIS1        0.1618
    101 C           8.3600   35.5360   -4.6520 C.2     1  HIS1        0.2264
    102 O           7.7110   34.6040   -4.1640 O.2     1  HIS1       -0.2867
    103 CB         10.0250   35.8620   -2.8200 C.3     1  HIS1        0.0704
    104 CG         10.7970   36.7710   -1.9190 C.2     1  HIS1        0.0649
    105 ND1        12.1720   36.7200   -1.8210 N.2     1  HIS1       -0.2310
    106 CD2        10.3950   37.7310   -1.0480 C.3     1  HIS1        0.1683
    107 CE1        12.5830   37.6090   -0.9350 C.2     1  HIS1        0.1939
    108 NE2        11.5270   38.2310   -0.4480 N.2     1  HIS1       -0.2440
    109 N          13.3110   27.3090   -1.0450 N.3     1  LEU1       -0.1245
    110 CA         13.9810   28.1930   -0.1020 C.3     1  LEU1        0.1561
    111 C          15.2210   28.8250   -0.7010 C.2     1  LEU1        0.2260
    112 O          15.5050   29.9810   -0.4330 O.2     1  LEU1       -0.2867
    113 CB         14.3300   27.4520    1.1980 C.3     1  LEU1        0.0270
    114 CG         13.1910   27.0050    2.1270 C.3     1  LEU1        0.0019
    115 CD2        13.7790   26.4650    3.4140 C.3     1  LEU1        0.0001
    116 CD1        12.2340   28.1510    2.4220 C.3     1  LEU1        0.0001
    117 N          14.2330   32.0240   -3.0420 N.3     1  ILE1       -0.1231
    118 CA         13.8760   33.2890   -2.4200 C.3     1  ILE1        0.1692
    119 C          15.0570   33.7960   -1.5810 C.2     1  ILE1        0.2593
    120 O          14.9310   34.7810   -0.8590 O.2     1  ILE1       -0.2718
    121 CB         12.5760   33.1900   -1.5550 C.3     1  ILE1        0.0266
    122 CG1        12.7440   32.2440   -0.3660 C.3     1  ILE1        0.0019
    123 CG2        11.4170   32.7660   -2.4040 C.3     1  ILE1        0.0020
    124 CD1        11.5100   32.1970    0.5290 C.3     1  ILE1        0.0001
    125 N          16.1870   33.0860   -1.6840 N.am    2  GLY2       -0.1942
    126 CA         17.4080   33.4360   -0.9810 C.3     2  GLY2        0.2014
    127 C          17.4040   33.2630    0.5280 C.2     2  GLY2        0.2639
    128 O          18.0950   33.9840    1.2400 O.2     2  GLY2       -0.2714
    129 N          16.7220   32.2500    1.0230 N.am    3  CYS3       -0.1953
    130 CA         16.6650   32.0590    2.4630 C.3     3  CYS3        0.1843
    131 C          17.9070   31.3550    3.0470 C.2     3  CYS3        0.2626
    132 O          18.3940   30.3820    2.4690 O.2     3  CYS3       -0.2714
    133 CB         15.3830   31.3040    2.7940 C.3     3  CYS3        0.0997
    134 SG         15.0000   31.1970    4.5160 S.3     3  CYS3       -0.0797
    135 N          18.4210   31.8630    4.1720 N.am    4  THR4       -0.1936
    136 CA         19.5850   31.2800    4.8680 C.3     4  THR4        0.2028
    137 C          19.3530   31.0460    6.3700 C.2     4  THR4        0.2642
    138 O          18.4050   31.5660    6.9730 O.2     4  THR4       -0.2714
    139 CB         20.8830   32.1660    4.7680 C.3     4  THR4        0.1808
    140 OG1        20.6140   33.5120    5.1880 O.3     4  THR4       -0.2208
    141 CG2        21.4660   32.1460    3.3530 C.3     4  THR4        0.0379
    142 N          20.2340   30.2620    6.9720 N.am    5  LEU5       -0.1963
    143 CA         20.1730   30.0150    8.4000 C.3     5  LEU5        0.1728
    144 C          21.3520   30.7810    8.9860 C.2     5  LEU5        0.2616
    145 O          22.3760   30.9270    8.3370 O.2     5  LEU5       -0.2715
    146 CB         20.3170   28.5240    8.7090 C.3     5  LEU5        0.0311
    147 CG         19.0160   27.7240    8.6530 C.3     5  LEU5        0.0022
    148 CD1        19.2970   26.2330    8.6080 C.3     5  LEU5        0.0001
    149 CD2        18.1470   28.0790    9.8490 C.3     5  LEU5        0.0001
    150 N          21.1990   31.3090   10.1880 N.am    6  ASN6       -0.1958
    151 CA         22.2900   32.0270   10.8140 C.3     6  ASN6        0.1819
    152 C          22.2420   31.8670   12.3260 C.2     6  ASN6        0.2620
    153 O          21.1600   31.8530   12.9260 O.2     6  ASN6       -0.2715
    154 CB         22.2480   33.5090   10.4280 C.3     6  ASN6        0.1195
    155 CG         22.4040   33.7190    8.9280 C.2     6  ASN6        0.2630
    156 OD1        23.4710   34.1420    8.4550 O.2     6  ASN6       -0.2716
    157 ND2        21.3450   33.4250    8.1690 N.am    6  ASN6       -0.0877
    158 N          23.4190   31.7030   12.9230 N.am    7  PHE7       -0.1997
    159 CA         23.5810   31.5530   14.3690 C.3     7  PHE7        0.1357
    160 C          25.0680   31.7210   14.7240 C.2     7  PHE7        0.0705
    161 O          25.8090   32.2520   13.8660 O.co2   7  PHE7       -0.5474
    162 CB         23.0250   30.2000   14.8530 C.3     7  PHE7        0.0537
    163 CG         23.8440   29.0160   14.4490 C.ar    7  PHE7       -0.0201
    164 CD1        23.6480   28.4010   13.2240 C.ar    7  PHE7       -0.0042
    165 CD2        24.8070   28.5000   15.3140 C.ar    7  PHE7       -0.0042
    166 CE1        24.3950   27.2840   12.8630 C.ar    7  PHE7       -0.0003
    167 CE2        25.5660   27.3820   14.9670 C.ar    7  PHE7       -0.0003
    168 CZ         25.3620   26.7690   13.7390 C.ar    7  PHE7       -0.0000
    169 OXT        25.4960   31.3330   15.8350 O.co2   7  PHE7       -0.5474
@<TRIPOS>UNITY_ATOM_ATTR
76 1
charge -1
161 1
charge -1
@<TRIPOS>BOND
     1     1     7    1
     2     1     2    1
     3     2     5    1
     4     2     3    1
     5     3     4    2
     6     3     8   am
     7     5     6    1
     8     6     7    1
     9     8     9    1
    10     9    12    1
    11     9    10    1
    12    10    17   am
    13    10    11    2
    14    12    13    1
    15    13    14    1
    16    14    16   am
    17    14    15    2
    18    17    18    1
    19    18    21    1
    20    18    19    1
    21    19    20    2
    22    19    25   am
    23    21    22    1
    24    21    23    1
    25    22    24    1
    26    25    26    1
    27    26    27    1
    28    26    29    1
    29    27    28    2
    30    27    32   am
    31    29    31    1
    32    29    30    1
    33    32    33    1
    34    33    36    1
    35    33    34    1
    36    34    35    2
    37    36    37    1
    38    37    39    1
    39    37    38    1
    40    40    41    1
    41    40    46    1
    42    41    42    1
    43    41    44    1
    44    42    43    2
    45    42    47   am
    46    44    45    1
    47    45    46    1
    48    47    48    1
    49    48    49    1
    50    48    51    1
    51    49    55   am
    52    49    50    2
    53    51    52    1
    54    52    54    1
    55    52    53    1
    56    55    56    1
    57    56    57    1
    58    56    59    1
    59    57    58    2
    60    59    61    1
    61    59    60    1
    62    62    63    1
    63    63    66    1
    64    63    64    1
    65    64    70   am
    66    64    65    2
    67    66    67    1
    68    67    69    1
    69    67    68    1
    70    70    71    1
    71    71    72    1
    72    71    74    1
    73    72    73    2
    74    72    78   am
    75    74    75    1
    76    75    77   ar
    77    75    76   ar
    78    78    79    1
    79    79    80    1
    80    79    82    1
    81    80    81    2
    82    82    84    1
    83    82    83    1
    84    85    86    1
    85    86    89    1
    86    86    87    1
    87    87    88    2
    88    87    93   am
    89    89    90    1
    90    89    91    1
    91    90    92    1
    92    93    94    1
    93    94    95    1
    94    94    97    1
    95    95    96    2
    96    97    98    1
    97    99   100    1
    98   100   101    1
    99   100   103    1
   100   101   102    2
   101   103   104    1
   102   104   105    2
   103   104   106    1
   104   105   107    1
   105   106   108    1
   106   107   108    2
   107   109   110    1
   108   110   111    1
   109   110   113    1
   110   111   112    2
   111   113   114    1
   112   114   116    1
   113   114   115    1
   114   117   118    1
   115   118   119    1
   116   118   121    1
   117   119   125   am
   118   119   120    2
   119   121   123    1
   120   121   122    1
   121   122   124    1
   122   125   126    1
   123   126   127    1
   124   127   129   am
   125   127   128    2
   126   129   130    1
   127   130   133    1
   128   130   131    1
   129   131   132    2
   130   131   135   am
   131   133   134    1
   132   135   136    1
   133   136   139    1
   134   136   137    1
   135   137   142   am
   136   137   138    2
   137   139   141    1
   138   139   140    1
   139   142   143    1
   140   143   146    1
   141   143   144    1
   142   144   145    2
   143   144   150   am
   144   146   147    1
   145   147   148    1
   146   147   149    1
   147   150   151    1
   148   151   154    1
   149   151   152    1
   150   152   158   am
   151   152   153    2
   152   154   155    1
   153   155   157   am
   154   155   156    2
   155   158   159    1
   156   159   160    1
   157   159   162    1
   158   160   161   ar
   159   160   169   ar
   160   162   163    1
   161   163   164   ar
   162   163   165   ar
   163   164   166   ar
   164   165   167   ar
   165   166   168   ar
   166   167   168   ar
