@<TRIPOS>MOLECULE
./5cna/ligand.pdb
 13 13 0 0 0
SMALL
GASTEIGER

@<TRIPOS>ATOM
      1  C1        63.1610   99.7860   30.0590 C.3     1  MMA1        0.2695
      2  O1        64.3520   98.9880   29.8820 O.3     1  MMA1       -0.3259
      3  C2        62.0000   98.8050   30.3820 C.3     1  MMA1        0.2406
      4  O2        60.7870   99.4300   30.6640 O.3     1  MMA1       -0.2149
      5  C3        61.8380   97.9090   29.2290 C.3     1  MMA1        0.2198
      6  O3        60.7710   97.0390   29.4530 O.3     1  MMA1       -0.2174
      7  C4        61.5720   98.6950   27.9620 C.3     1  MMA1        0.2144
      8  O4        61.4840   97.7250   26.9400 O.3     1  MMA1       -0.2176
      9  C5        62.7180   99.6420   27.6970 C.3     1  MMA1        0.1835
     10  O5        62.8670  100.5110   28.8370 O.3     1  MMA1       -0.3256
     11  C6        62.3870  100.4980   26.4590 C.3     1  MMA1        0.2142
     12  O6        61.5130  101.5550   26.8280 O.3     1  MMA1       -0.2176
     13  C7        65.4730   99.8080   29.6950 C.3     1  MMA1        0.1769
@<TRIPOS>BOND
     1     1     2    1
     2     1     3    1
     3     1    10    1
     4     2    13    1
     5     3     4    1
     6     3     5    1
     7     5     6    1
     8     5     7    1
     9     7     8    1
    10     7     9    1
    11     9    10    1
    12     9    11    1
    13    11    12    1
