@<TRIPOS>MOLECULE
./1mka/protein.pdb
 229 228 0 0 0
SMALL
GASTEIGER

@<TRIPOS>ATOM
      1 N         -25.1890    9.1540   20.9580 N.3     1  GLY1       -0.1225
      2 CA        -24.6060    7.8380   20.7540 C.3     1  GLY1        0.1811
      3 C         -25.6140    6.7060   20.8600 C.2     1  GLY1        0.2280
      4 O         -25.4000    5.6170   20.3180 O.2     1  GLY1       -0.2866
      5 N         -28.3770   10.1310   12.4240 N.3     1  PRO1       -0.2102
      6 CA        -27.1010    9.4590   12.6900 C.3     1  PRO1        0.1504
      7 C         -26.7550    9.4870   14.1720 C.2     1  PRO1        0.2576
      8 O         -27.2770   10.3120   14.9360 O.2     1  PRO1       -0.2718
      9 CB        -26.1210   10.3080   11.8750 C.3     1  PRO1        0.0282
     10 CG        -26.7000   11.6930   12.0230 C.3     1  PRO1        0.0208
     11 CD        -28.1790   11.4430   11.8060 C.3     1  PRO1        0.0893
     12 N         -25.8620    8.5830   14.5710 N.am    2  GLN2       -0.1966
     13 CA        -25.3940    8.4890   15.9480 C.3     2  GLN2        0.1733
     14 C         -23.9230    8.8550   16.0040 C.2     2  GLN2        0.2616
     15 O         -23.1750    8.6060   15.0590 O.2     2  GLN2       -0.2715
     16 CB        -25.4780    7.0490   16.4610 C.3     2  GLN2        0.0408
     17 CG        -26.8480    6.4380   16.5790 C.3     2  GLN2        0.0908
     18 CD        -26.7480    4.9220   16.7050 C.2     2  GLN2        0.2608
     19 OE1       -26.9040    4.2040   15.7220 O.2     2  GLN2       -0.2717
     20 NE2       -26.4150    4.4370   17.8910 N.am    2  GLN2       -0.0878
     21 N         -23.5170    9.4710   17.1020 N.am    3  LEU3       -0.1964
     22 CA        -22.1190    9.7680   17.3260 C.3     3  LEU3        0.1713
     23 C         -21.6020    8.4850   17.9810 C.2     3  LEU3        0.2458
     24 O         -22.3960    7.6660   18.4540 O.2     3  LEU3       -0.2730
     25 CB        -21.9700   10.8860   18.3540 C.3     3  LEU3        0.0310
     26 CG        -21.9670   12.3170   17.8540 C.3     3  LEU3        0.0022
     27 CD2       -21.8600   13.2500   19.0500 C.3     3  LEU3        0.0001
     28 CD1       -20.7850   12.5110   16.9080 C.3     3  LEU3        0.0001
     29 N         -20.2780    8.2410   17.9360 N.am    4  PRO4       -0.2716
     30 CA        -19.7470    7.0360   18.5770 C.3     4  PRO4        0.1536
     31 C         -19.9510    7.2520   20.0820 C.2     4  PRO4        0.2598
     32 O         -20.1590    8.3900   20.5290 O.2     4  PRO4       -0.2715
     33 CB        -18.2560    7.1030   18.2490 C.3     4  PRO4        0.0310
     34 CG        -18.2260    7.8470   16.9290 C.3     4  PRO4        0.0237
     35 CD        -19.2440    8.9280   17.1390 C.3     4  PRO4        0.0939
     36 N         -19.9080    6.1780   20.8530 N.am    5  ALA5       -0.1978
     37 CA        -20.0620    6.2750   22.2970 C.3     5  ALA5        0.1597
     38 C         -18.6670    6.1410   22.8790 C.2     5  ALA5        0.2287
     39 O         -17.7000    5.8830   22.1380 O.2     5  ALA5       -0.2864
     40 CB        -20.9620    5.1400   22.8050 C.3     5  ALA5        0.0319
     41 N         -14.9620    5.9800   21.9980 N.3     1  MET1       -0.1245
     42 CA        -14.6780    6.5650   20.6930 C.3     1  MET1        0.1570
     43 C         -15.1840    8.0190   20.5570 C.2     1  MET1        0.2261
     44 O         -14.7650    8.7440   19.6520 O.2     1  MET1       -0.2867
     45 CB        -15.2050    5.6780   19.5490 C.3     1  MET1        0.0387
     46 CG        -14.2390    4.5500   19.1190 C.3     1  MET1        0.0595
     47 SD        -12.5480    5.1020   18.6600 S.3     1  MET1       -0.1393
     48 CE        -12.8600    6.0680   17.2210 C.3     1  MET1        0.0692
     49 N          -4.8590   10.2120   15.1300 N.3     1  CYS1       -0.1235
     50 CA         -5.9990    9.5910   14.4620 C.3     1  CYS1        0.1677
     51 C          -7.3060    9.8830   15.1770 C.2     1  CYS1        0.2270
     52 O          -8.3400    9.9950   14.5300 O.2     1  CYS1       -0.2867
     53 CB         -5.8210    8.0660   14.3570 C.3     1  CYS1        0.0956
     54 SG         -5.9690    7.1540   15.9540 S.3     1  CYS1       -0.0801
     55 N          -8.4790   13.4030   14.4500 N.3     1  LEU1       -0.1231
     56 CA         -8.9860   13.3130   13.0910 C.3     1  LEU1        0.1693
     57 C         -10.3890   12.7170   13.1120 C.2     1  LEU1        0.2592
     58 O         -11.2700   13.1930   12.4070 O.2     1  LEU1       -0.2718
     59 CB         -8.0680   12.4380   12.2360 C.3     1  LEU1        0.0284
     60 CG         -8.5060   12.1290   10.8010 C.3     1  LEU1        0.0019
     61 CD1        -8.8510   13.4080   10.0310 C.3     1  LEU1        0.0001
     62 CD2        -7.3830   11.3620   10.0990 C.3     1  LEU1        0.0001
     63 N         -10.6110   11.6780   13.9140 N.am    2  ASP2       -0.1962
     64 CA        -11.9450   11.0790   13.9700 C.3     2  ASP2        0.1783
     65 C         -12.9650   12.0560   14.5200 C.2     2  ASP2        0.2620
     66 O         -14.1170   12.0680   14.0920 O.2     2  ASP2       -0.2715
     67 CB        -11.9720    9.7880   14.8000 C.3     2  ASP2        0.0728
     68 CG        -12.9780    8.7980   14.2610 C.2     2  ASP2        0.0526
     69 OD1       -12.7160    8.2480   13.1720 O.co2   2  ASP2       -0.5491
     70 OD2       -14.0520    8.6150   14.8720 O.co2   2  ASP2       -0.5491
     71 N         -12.5470   12.8740   15.4810 N.am    3  ALA3       -0.1963
     72 CA        -13.4340   13.8780   16.0720 C.3     3  ALA3        0.1728
     73 C         -13.9750   14.7960   14.9610 C.2     3  ALA3        0.2616
     74 O         -15.1520   15.1830   14.9630 O.2     3  ALA3       -0.2715
     75 CB        -12.6750   14.6890   17.0880 C.3     3  ALA3        0.0334
     76 N         -13.1070   15.1350   14.0120 N.am    4  MET4       -0.1963
     77 CA        -13.4900   15.9910   12.8960 C.3     4  MET4        0.1736
     78 C         -14.5160   15.3130   11.9950 C.2     4  MET4        0.2616
     79 O         -15.4800   15.9530   11.5700 O.2     4  MET4       -0.2715
     80 CB        -12.2550   16.4600   12.1230 C.3     4  MET4        0.0427
     81 CG        -11.4220   17.4450   12.9460 C.3     4  MET4        0.0599
     82 SD        -10.1260   18.2750   12.0510 S.3     4  MET4       -0.1393
     83 CE         -8.8350   17.0470   12.0870 C.3     4  MET4        0.0692
     84 N         -14.3340   14.0160   11.7270 N.am    5  TRP5       -0.1960
     85 CA        -15.2970   13.2720   10.9180 C.3     5  TRP5        0.1768
     86 C         -16.6080   13.2000   11.6910 C.2     5  TRP5        0.2619
     87 O         -17.6840   13.3600   11.1150 O.2     5  TRP5       -0.2715
     88 CB        -14.8020   11.8470   10.6080 C.3     5  TRP5        0.0553
     89 CG        -13.8920   11.7490    9.4090 C.2     5  TRP5       -0.0136
     90 CD1       -14.0170   12.4120    8.2180 C.2     5  TRP5        0.0907
     91 CD2       -12.7230   10.9320    9.2880 C.3     5  TRP5        0.0819
     92 NE1       -12.9960   12.0560    7.3630 N.2     5  TRP5       -0.2482
     93 CE2       -12.1840   11.1520    7.9980 C.2     5  TRP5        0.0665
     94 CE3       -12.0770   10.0310   10.1490 C.2     5  TRP5       -0.0164
     95 CZ2       -11.0280   10.5050    7.5400 C.2     5  TRP5        0.0153
     96 CZ3       -10.9250    9.3820    9.6960 C.2     5  TRP5       -0.0038
     97 CH2       -10.4130    9.6290    8.3950 C.2     5  TRP5        0.0009
     98 N         -16.5050   12.9660   13.0010 N.am    6  GLN6       -0.1963
     99 CA        -17.6730   12.8840   13.8710 C.3     6  GLN6        0.1733
    100 C         -18.4940   14.1730   13.8130 C.2     6  GLN6        0.2616
    101 O         -19.7230   14.1250   13.7180 O.2     6  GLN6       -0.2715
    102 CB        -17.2590   12.6060   15.3260 C.3     6  GLN6        0.0408
    103 CG        -16.6860   11.1910   15.5820 C.3     6  GLN6        0.0908
    104 CD        -16.1900   10.9860   17.0170 C.2     6  GLN6        0.2608
    105 OE1       -16.7260   11.5650   17.9580 O.2     6  GLN6       -0.2717
    106 NE2       -15.1570   10.1680   17.1810 N.am    6  GLN6       -0.0878
    107 N         -17.8200   15.3210   13.8690 N.am    7  LEU7       -0.1963
    108 CA        -18.5090   16.6140   13.8240 C.3     7  LEU7        0.1728
    109 C         -19.1850   16.8850   12.4790 C.2     7  LEU7        0.2616
    110 O         -20.2910   17.4390   12.4370 O.2     7  LEU7       -0.2715
    111 CB        -17.5490   17.7460   14.1930 C.3     7  LEU7        0.0311
    112 CG        -17.1540   17.7650   15.6770 C.3     7  LEU7        0.0022
    113 CD1       -15.9590   18.6730   15.9060 C.3     7  LEU7        0.0001
    114 CD2       -18.3430   18.1890   16.5290 C.3     7  LEU7        0.0001
    115 N         -18.5290   16.4990   11.3840 N.am    8  VAL8       -0.1963
    116 CA        -19.1020   16.6720   10.0440 C.3     8  VAL8        0.1727
    117 C         -20.3910   15.8350    9.9650 C.2     8  VAL8        0.2617
    118 O         -21.4480   16.3390    9.5700 O.2     8  VAL8       -0.2715
    119 CB        -18.1020   16.2380    8.9370 C.3     8  VAL8        0.0290
    120 CG1       -18.7750   16.2490    7.5630 C.3     8  VAL8        0.0023
    121 CG2       -16.8980   17.1680    8.9290 C.3     8  VAL8        0.0023
    122 N         -20.3180   14.5790   10.4040 N.am    9  GLY9       -0.1940
    123 CA        -21.4970   13.7260   10.3840 C.3     9  GLY9        0.2014
    124 C         -22.5990   14.2180   11.3060 C.2     9  GLY9        0.2639
    125 O         -23.7800   14.1200   10.9780 O.2     9  GLY9       -0.2714
    126 N         -22.2210   14.7170   12.4780 N.am   10  PHE10      -0.1959
    127 CA        -23.1860   15.2440   13.4450 C.3    10  PHE10       0.1771
    128 C         -23.9700   16.4330   12.8460 C.2    10  PHE10       0.2619
    129 O         -25.1900   16.5510   13.0080 O.2    10  PHE10      -0.2715
    130 CB        -22.4410   15.6990   14.7010 C.3    10  PHE10       0.0574
    131 CG        -23.3380   16.1180   15.8240 C.ar   10  PHE10      -0.0200
    132 CD2       -24.0820   15.1720   16.5260 C.ar   10  PHE10      -0.0042
    133 CD1       -23.4160   17.4570   16.2070 C.ar   10  PHE10      -0.0042
    134 CE2       -24.8910   15.5530   17.6050 C.ar   10  PHE10      -0.0003
    135 CE1       -24.2180   17.8490   17.2770 C.ar   10  PHE10      -0.0003
    136 CZ        -24.9590   16.8960   17.9800 C.ar   10  PHE10      -0.0000
    137 N         -23.2490   17.3110   12.1640 N.am   11  TYR11      -0.1974
    138 CA        -23.8240   18.4870   11.5230 C.3    11  TYR11       0.1639
    139 C         -24.8730   18.0710   10.4790 C.2    11  TYR11       0.2290
    140 O         -25.9700   18.6390   10.4180 O.2    11  TYR11      -0.2864
    141 CB        -22.6920   19.2790   10.8670 C.3    11  TYR11       0.0560
    142 CG        -23.0720   20.6330   10.3180 C.ar   11  TYR11      -0.0198
    143 CD2       -23.0370   21.7700   11.1270 C.ar   11  TYR11      -0.0009
    144 CD1       -23.3970   20.7910    8.9700 C.ar   11  TYR11      -0.0009
    145 CE2       -23.3110   23.0380   10.6050 C.ar   11  TYR11       0.0417
    146 CE1       -23.6720   22.0490    8.4390 C.ar   11  TYR11       0.0417
    147 CZ        -23.6220   23.1670    9.2610 C.ar   11  TYR11       0.1957
    148 OH        -23.8340   24.4160    8.7320 O.3    11  TYR11      -0.2866
    149 N         -29.8510    8.6580    8.2940 N.3     1  GLY1       -0.1210
    150 CA        -28.9890    7.5700    7.8810 C.3     1  GLY1        0.1956
    151 C         -27.8500    7.3290    8.8490 C.2     1  GLY1        0.2612
    152 O         -27.6680    8.0900    9.8010 O.2     1  GLY1       -0.2717
    153 N         -27.1740    6.2130    8.6400 N.am    2  LYS2       -0.1965
    154 CA        -25.9810    5.7710    9.4090 C.3     2  LYS2        0.1728
    155 C         -24.7560    6.5640    8.8890 C.2     2  LYS2        0.2617
    156 O         -24.5620    6.7190    7.6760 O.2     2  LYS2       -0.2715
    157 CB        -25.7350    4.2490    9.1790 C.3     2  LYS2        0.0311
    158 CG        -26.8470    3.3060    9.7130 C.3     2  LYS2        0.0038
    159 CD        -26.9390    1.9500    8.9580 C.3     2  LYS2        0.0206
    160 CE        -27.9870    0.9760    9.5340 C.3     2  LYS2        0.1093
    161 NZ        -28.1240   -0.2800    8.7690 N.3     2  LYS2       -0.1314
    162 N         -23.9160    7.1330    9.8300 N.am    3  GLY3       -0.1940
    163 CA        -22.7290    7.8650    9.4320 C.3     3  GLY3        0.2014
    164 C         -21.5660    6.9690    9.0440 C.2     3  GLY3        0.2639
    165 O         -21.3250    5.9300    9.6790 O.2     3  GLY3       -0.2714
    166 N         -20.8840    7.3360    7.9610 N.am    4  ARG4       -0.1963
    167 CA        -19.7040    6.6190    7.4790 C.3     4  ARG4        0.1729
    168 C         -18.7200    7.6450    6.8980 C.2     4  ARG4        0.2616
    169 O         -19.0830    8.4370    6.0270 O.2     4  ARG4       -0.2715
    170 CB        -20.0680    5.5990    6.3890 C.3     4  ARG4        0.0348
    171 CG        -20.9190    4.4060    6.8300 C.3     4  ARG4        0.0492
    172 CD        -20.1310    3.4540    7.7250 C.3     4  ARG4        0.2205
    173 NE        -20.8320    2.1970    8.0000 N.pl3   4  ARG4       -0.0865
    174 CZ        -21.7340    2.0180    8.9710 C.cat   4  ARG4        0.5346
    175 NH2       -22.0640    3.0230    9.7790 N.pl3   4  ARG4        0.1354
    176 NH1       -22.3030    0.8280    9.1420 N.pl3   4  ARG4        0.1354
    177 N         -17.5020    7.6760    7.4260 N.am    5  ALA5       -0.1963
    178 CA        -16.4720    8.5700    6.9100 C.3     5  ALA5        0.1728
    179 C         -16.0880    8.0470    5.5290 C.2     5  ALA5        0.2616
    180 O         -15.9200    6.8270    5.3400 O.2     5  ALA5       -0.2715
    181 CB        -15.2540    8.5640    7.8220 C.3     5  ALA5        0.0334
    182 N         -15.9440    8.9640    4.5740 N.am    6  LEU6       -0.1963
    183 CA        -15.5880    8.6170    3.2040 C.3     6  LEU6        0.1728
    184 C         -14.1290    8.8950    2.8760 C.2     6  LEU6        0.2616
    185 O         -13.5700    8.3020    1.9370 O.2     6  LEU6       -0.2715
    186 CB        -16.5100    9.3330    2.2250 C.3     6  LEU6        0.0311
    187 CG        -17.9880    8.9750    2.4110 C.3     6  LEU6        0.0022
    188 CD1       -18.8670    9.7730    1.4600 C.3     6  LEU6        0.0001
    189 CD2       -18.1800    7.4900    2.1860 C.3     6  LEU6        0.0001
    190 N         -13.5060    9.7950    3.6260 N.am    7  GLY7       -0.1955
    191 CA        -12.1080   10.0870    3.4030 C.3     7  GLY7        0.1869
    192 C         -11.6880   11.4750    3.8170 C.2     7  GLY7        0.2309
    193 O         -12.4250   12.1870    4.4990 O.2     7  GLY7       -0.2863
    194 N         -12.4310   16.9530    4.5250 N.3     1  LEU1       -0.1231
    195 CA        -12.9440   15.8480    5.3090 C.3     1  LEU1        0.1693
    196 C         -14.2530   15.5110    4.5940 C.2     1  LEU1        0.2592
    197 O         -15.0210   16.4190    4.2480 O.2     1  LEU1       -0.2718
    198 CB        -13.2470   16.3240    6.7380 C.3     1  LEU1        0.0284
    199 CG        -12.0430   16.6950    7.5930 C.3     1  LEU1        0.0019
    200 CD2       -12.4120   17.7910    8.5720 C.3     1  LEU1        0.0001
    201 CD1       -11.5260   15.4450    8.3000 C.3     1  LEU1        0.0001
    202 N         -14.5230   14.2280    4.3770 N.am    2  LYS2       -0.1966
    203 CA        -15.7470   13.8480    3.6820 C.3     2  LYS2        0.1728
    204 C         -16.4770   12.7770    4.4610 C.2     2  LYS2        0.2616
    205 O         -15.8730   11.7770    4.8560 O.2     2  LYS2       -0.2715
    206 CB        -15.4160   13.3580    2.2630 C.3     2  LYS2        0.0311
    207 CG        -16.6110   13.2390    1.3490 C.3     2  LYS2        0.0038
    208 CD        -16.1780   12.7470   -0.0220 C.3     2  LYS2        0.0206
    209 CE        -17.3710   12.6580   -0.9850 C.3     2  LYS2        0.1093
    210 NZ        -17.0090   12.1440   -2.3520 N.3     2  LYS2       -0.1314
    211 N         -17.7720   12.9930    4.6780 N.am    3  VAL3       -0.1963
    212 CA        -18.6170   12.0690    5.4210 C.3     3  VAL3        0.1727
    213 C         -20.0060   12.0180    4.7930 C.2     3  VAL3        0.2617
    214 O         -20.5300   13.0460    4.3780 O.2     3  VAL3       -0.2715
    215 CB        -18.8160   12.5330    6.8980 C.3     3  VAL3        0.0290
    216 CG1       -19.7890   11.6060    7.6270 C.3     3  VAL3        0.0023
    217 CG2       -17.4880   12.5830    7.6350 C.3     3  VAL3        0.0023
    218 N         -20.6130   10.8390    4.7650 N.am    4  GLY4       -0.1940
    219 CA        -21.9530   10.7250    4.2270 C.3     4  GLY4        0.2014
    220 C         -22.8410    9.9620    5.1880 C.2     4  GLY4        0.2638
    221 O         -22.3310    9.3100    6.0970 O.2     4  GLY4       -0.2714
    222 N         -24.1560   10.1140    5.0660 N.am    5  LEU5       -0.1977
    223 CA        -25.1040    9.3680    5.8990 C.3     5  LEU5        0.1596
    224 C         -25.7450    8.3750    4.9200 C.2     5  LEU5        0.2287
    225 O         -26.1040    8.7520    3.8040 O.2     5  LEU5       -0.2864
    226 CB        -26.1930   10.2780    6.4920 C.3     5  LEU5        0.0297
    227 CG        -25.8310   11.4630    7.3970 C.3     5  LEU5        0.0022
    228 CD1       -27.0920   11.9020    8.1320 C.3     5  LEU5        0.0001
    229 CD2       -24.7500   11.0520    8.3930 C.3     5  LEU5        0.0001
@<TRIPOS>UNITY_ATOM_ATTR
69 1
charge -1
@<TRIPOS>BOND
     1     1     2    1
     2     2     3    1
     3     3     4    2
     4     5    11    1
     5     5     6    1
     6     6     9    1
     7     6     7    1
     8     7    12   am
     9     7     8    2
    10     9    10    1
    11    10    11    1
    12    12    13    1
    13    13    14    1
    14    13    16    1
    15    14    15    2
    16    14    21   am
    17    16    17    1
    18    17    18    1
    19    18    19    2
    20    18    20   am
    21    21    22    1
    22    22    23    1
    23    22    25    1
    24    23    29   am
    25    23    24    2
    26    25    26    1
    27    26    28    1
    28    26    27    1
    29    29    35    1
    30    29    30    1
    31    30    33    1
    32    30    31    1
    33    31    32    2
    34    31    36   am
    35    33    34    1
    36    34    35    1
    37    36    37    1
    38    37    40    1
    39    37    38    1
    40    38    39    2
    41    41    42    1
    42    42    45    1
    43    42    43    1
    44    43    44    2
    45    45    46    1
    46    46    47    1
    47    47    48    1
    48    49    50    1
    49    50    53    1
    50    50    51    1
    51    51    52    2
    52    53    54    1
    53    55    56    1
    54    56    59    1
    55    56    57    1
    56    57    58    2
    57    57    63   am
    58    59    60    1
    59    60    61    1
    60    60    62    1
    61    63    64    1
    62    64    65    1
    63    64    67    1
    64    65    66    2
    65    65    71   am
    66    67    68    1
    67    68    69   ar
    68    68    70   ar
    69    71    72    1
    70    72    73    1
    71    72    75    1
    72    73    76   am
    73    73    74    2
    74    76    77    1
    75    77    78    1
    76    77    80    1
    77    78    79    2
    78    78    84   am
    79    80    81    1
    80    81    82    1
    81    82    83    1
    82    84    85    1
    83    85    88    1
    84    85    86    1
    85    86    87    2
    86    86    98   am
    87    88    89    1
    88    89    90    2
    89    89    91    1
    90    90    92    1
    91    91    93    1
    92    91    94    1
    93    92    93    2
    94    93    95    1
    95    94    96    2
    96    95    97    2
    97    96    97    1
    98    98    99    1
    99    99   100    1
   100    99   102    1
   101   100   101    2
   102   100   107   am
   103   102   103    1
   104   103   104    1
   105   104   106   am
   106   104   105    2
   107   107   108    1
   108   108   109    1
   109   108   111    1
   110   109   115   am
   111   109   110    2
   112   111   112    1
   113   112   113    1
   114   112   114    1
   115   115   116    1
   116   116   119    1
   117   116   117    1
   118   117   118    2
   119   117   122   am
   120   119   120    1
   121   119   121    1
   122   122   123    1
   123   123   124    1
   124   124   125    2
   125   124   126   am
   126   126   127    1
   127   127   128    1
   128   127   130    1
   129   128   137   am
   130   128   129    2
   131   130   131    1
   132   131   133   ar
   133   131   132   ar
   134   132   134   ar
   135   133   135   ar
   136   134   136   ar
   137   135   136   ar
   138   137   138    1
   139   138   139    1
   140   138   141    1
   141   139   140    2
   142   141   142    1
   143   142   144   ar
   144   142   143   ar
   145   143   145   ar
   146   144   146   ar
   147   145   147   ar
   148   146   147   ar
   149   147   148    1
   150   149   150    1
   151   150   151    1
   152   151   153   am
   153   151   152    2
   154   153   154    1
   155   154   155    1
   156   154   157    1
   157   155   156    2
   158   155   162   am
   159   157   158    1
   160   158   159    1
   161   159   160    1
   162   160   161    1
   163   162   163    1
   164   163   164    1
   165   164   166   am
   166   164   165    2
   167   166   167    1
   168   167   170    1
   169   167   168    1
   170   168   169    2
   171   168   177   am
   172   170   171    1
   173   171   172    1
   174   172   173    1
   175   173   174    2
   176   174   176    1
   177   174   175    1
   178   177   178    1
   179   178   179    1
   180   178   181    1
   181   179   182   am
   182   179   180    2
   183   182   183    1
   184   183   186    1
   185   183   184    1
   186   184   185    2
   187   184   190   am
   188   186   187    1
   189   187   188    1
   190   187   189    1
   191   190   191    1
   192   191   192    1
   193   192   193    2
   194   194   195    1
   195   195   196    1
   196   195   198    1
   197   196   197    2
   198   196   202   am
   199   198   199    1
   200   199   201    1
   201   199   200    1
   202   202   203    1
   203   203   206    1
   204   203   204    1
   205   204   211   am
   206   204   205    2
   207   206   207    1
   208   207   208    1
   209   208   209    1
   210   209   210    1
   211   211   212    1
   212   212   213    1
   213   212   215    1
   214   213   214    2
   215   213   218   am
   216   215   216    1
   217   215   217    1
   218   218   219    1
   219   219   220    1
   220   220   222   am
   221   220   221    2
   222   222   223    1
   223   223   224    1
   224   223   226    1
   225   224   225    2
   226   226   227    1
   227   227   228    1
   228   227   229    1
