@<TRIPOS>MOLECULE
./1pso/ligand.pdb
 48 47 0 0 0
SMALL
GASTEIGER

@<TRIPOS>ATOM
      1  CA         5.4700   19.8900    1.1900 C.3     1  IVA1        0.0868
      2  C          5.7600   19.3000    2.5800 C.2     1  IVA1        0.2418
      3  O          4.9500   18.5700    3.1500 O.2     1  IVA1       -0.2733
      4  CB         4.3800   20.9600    1.1400 C.3     1  IVA1        0.0091
      5  CG1        4.1900   21.3700   -0.3200 C.3     1  IVA1        0.0005
      6  CG2        3.0400   20.5100    1.7400 C.3     1  IVA1        0.0005
      7  N          6.7400   19.8900    3.2200 N.am    2  VAL2       -0.1978
      8  CA         7.4900   19.2600    4.3200 C.3     2  VAL2        0.1726
      9  C          6.8500   19.6000    5.6800 C.2     2  VAL2        0.2616
     10  O          6.3300   20.6900    5.8500 O.2     2  VAL2       -0.2715
     11  CB         8.9300   19.7700    4.0600 C.3     2  VAL2        0.0290
     12  CG1        9.4300   20.9600    4.8700 C.3     2  VAL2        0.0023
     13  CG2        9.9600   18.6700    4.0700 C.3     2  VAL2        0.0023
     14  N          6.6600   18.6000    6.5300 N.am    3  VAL3       -0.1963
     15  CA         6.3400   18.8100    7.9600 C.3     3  VAL3        0.1727
     16  C          7.3900   18.0300    8.7900 C.2     3  VAL3        0.2612
     17  O          7.2900   16.8200    8.9200 O.2     3  VAL3       -0.2715
     18  CB         4.9000   18.3600    8.3100 C.3     3  VAL3        0.0290
     19  CG1        4.5900   18.6000    9.7800 C.3     3  VAL3        0.0023
     20  CG2        3.8600   19.0600    7.4400 C.3     3  VAL3        0.0023
     21  N          8.4100   18.7000    9.2900 N.am    4  STA4       -0.2031
     22  CA         9.5500   18.0700    9.9800 C.3     4  STA4        0.1261
     23  C          8.4800   16.8700   12.8900 C.2     4  STA4        0.2444
     24  O          7.8100   16.0400   12.3100 O.2     4  STA4       -0.2732
     25  CB        10.8000   18.4300    9.1700 C.3     4  STA4        0.0243
     26  CG        11.3600   17.5000    8.0800 C.3     4  STA4        0.0018
     27  CD1       11.9600   18.3800    6.9900 C.3     4  STA4        0.0001
     28  CD2       10.4200   16.5200    7.4200 C.3     4  STA4        0.0001
     29  CH         9.6500   18.6100   11.4100 C.3     4  STA4        0.1809
     30  OH         9.8500   20.0300   11.3100 O.3     4  STA4       -0.2208
     31  CM         8.4900   18.3200   12.3700 C.3     4  STA4        0.1214
     32  N          9.2800   16.5900   13.9100 N.am    5  ALA5       -0.1977
     33  CA         9.1800   15.3000   14.6400 C.3     5  ALA5        0.1728
     34  C          7.9000   15.1500   15.4500 C.2     5  ALA5        0.2612
     35  O          7.4900   16.1000   16.0800 O.2     5  ALA5       -0.2715
     36  CB        10.3700   15.1000   15.5900 C.3     5  ALA5        0.0334
     37  N          7.3800   13.9200   15.4800 N.am    6  STA6       -0.2031
     38  CA         6.0800   13.5300   16.0900 C.3     6  STA6        0.1260
     39  C          7.8200   13.4800   19.0300 C.2     6  STA6        0.0529
     40  O          8.4200   12.6800   19.7900 O.co2   6  STA6       -0.5491
     41  CB         5.2300   12.9100   14.9900 C.3     6  STA6        0.0243
     42  CG         4.2000   13.8300   14.3400 C.3     6  STA6        0.0018
     43  CD1        3.8000   13.2000   13.0100 C.3     6  STA6        0.0001
     44  CD2        4.6400   15.2800   14.1000 C.3     6  STA6        0.0001
     45  CH         6.1400   12.5300   17.2700 C.3     6  STA6        0.1773
     46  OH         7.1000   11.5000   16.9900 O.3     6  STA6       -0.2209
     47  CM         6.3700   13.1400   18.6700 C.3     6  STA6        0.0763
     48  OXT        8.2400   14.6100   18.7200 O.co2   6  STA6       -0.5491
@<TRIPOS>UNITY_ATOM_ATTR
40 1
charge -1
@<TRIPOS>BOND
     1     1     2    1
     2     1     4    1
     3     2     3    2
     4     2     7   am
     5     4     5    1
     6     4     6    1
     7     7     8    1
     8     8     9    1
     9     8    11    1
    10     9    10    2
    11     9    14   am
    12    11    12    1
    13    11    13    1
    14    14    15    1
    15    15    16    1
    16    15    18    1
    17    16    17    2
    18    16    21   am
    19    18    19    1
    20    18    20    1
    21    21    22    1
    22    22    25    1
    23    22    29    1
    24    23    24    2
    25    23    32   am
    26    23    31    1
    27    25    26    1
    28    26    27    1
    29    26    28    1
    30    29    30    1
    31    29    31    1
    32    32    33    1
    33    33    34    1
    34    33    36    1
    35    34    35    2
    36    34    37   am
    37    37    38    1
    38    38    41    1
    39    38    45    1
    40    39    40   ar
    41    39    48   ar
    42    39    47    1
    43    41    42    1
    44    42    43    1
    45    42    44    1
    46    45    46    1
    47    45    47    1
