@<TRIPOS>MOLECULE
./1stn/ligand.pdb
 25 26 0 0 0
SMALL
GASTEIGER

@<TRIPOS>ATOM
      1  P1         4.7990   11.6290   26.2900 P.3     1  THP1        0.5326
      2  P2         6.2350   13.8860   20.5750 P.3     1  THP1        0.5327
      3  O1P        4.3660   11.1280   27.5990 O.3     1  THP1       -0.1145
      4  O2P        6.2080   11.4670   25.8810 O.3     1  THP1       -0.1145
      5  O3P        3.8920   10.9670   25.1500 O.2     1  THP1       -0.2224
      6  O4P        5.2980   13.8280   19.4370 O.3     1  THP1       -0.1145
      7  O5P        7.4840   14.6290   20.2790 O.3     1  THP1       -0.1145
      8  O6P        6.5180   12.4030   21.0720 O.2     1  THP1       -0.2224
      9  C5'        4.4780   14.2320   22.5880 C.3     1  THP1        0.1857
     10  O5'        5.6640   14.5700   21.8730 O.3     1  THP1       -0.2675
     11  C4'        4.8490   14.2570   24.0510 C.3     1  THP1        0.1750
     12  O4'        5.1100   15.5860   24.4560 O.3     1  THP1       -0.3327
     13  C3'        3.7890   13.7860   25.0280 C.3     1  THP1        0.1602
     14  O3'        4.4680   13.2100   26.1900 O.3     1  THP1       -0.2700
     15  C2'        2.9870   15.0950   25.2900 C.3     1  THP1        0.0867
     16  C1'        4.1490   16.0590   25.3990 C.3     1  THP1        0.2106
     17  N1         3.8380   17.4430   24.8980 N.ar    1  THP1       -0.2559
     18  C2         3.4490   18.3000   25.8740 C.ar    1  THP1        0.3545
     19  O2         3.6100   17.9890   27.0660 O.2     1  THP1       -0.2443
     20  N3         2.8620   19.4500   25.4840 N.ar    1  THP1       -0.1533
     21  C4         2.7130   19.7880   24.1550 C.ar    1  THP1        0.2804
     22  O4         2.1580   20.8790   24.0040 O.2     1  THP1       -0.2654
     23  C5         3.1610   18.9090   23.1710 C.ar    1  THP1        0.0534
     24  C5M        3.0120   19.2700   21.7100 C.3     1  THP1        0.0377
     25  C6         3.7140   17.6860   23.5510 C.ar    1  THP1        0.0824
@<TRIPOS>BOND
     1     1     3    1
     2     1     4    1
     3     1     5    2
     4     1    14    1
     5     2     6    1
     6     2     7    1
     7     2     8    2
     8     2    10    1
     9     9    11    1
    10     9    10    1
    11    11    12    1
    12    11    13    1
    13    12    16    1
    14    13    14    1
    15    13    15    1
    16    15    16    1
    17    16    17    1
    18    17    18   ar
    19    17    25   ar
    20    18    19    2
    21    18    20   ar
    22    20    21   ar
    23    21    22    2
    24    21    23   ar
    25    23    24    1
    26    23    25   ar
