@<TRIPOS>MOLECULE
./1qbu/protein.pdb
 180 176 0 0 0
SMALL
GASTEIGER

@<TRIPOS>ATOM
      1 N          -4.4320   25.5560   30.5130 N.3     1  LEU1       -0.2391
      2 CA         -5.4610   25.5980   29.4980 C.3     1  LEU1        0.1330
      3 C          -6.7380   25.7250   30.2770 C.2     1  LEU1        0.2241
      4 O          -6.8870   25.0410   31.2800 O.2     1  LEU1       -0.2868
      5 CB         -5.3270   24.2540   28.7730 C.3     1  LEU1        0.0251
      6 CG         -6.0580   23.9970   27.4490 C.3     1  LEU1        0.0018
      7 CD1        -5.5480   24.9430   26.3640 C.3     1  LEU1        0.0001
      8 CD2        -5.8790   22.5310   27.0330 C.3     1  LEU1        0.0001
      9 H          -4.2340   24.6960   30.9800 H       1  LEU1        0.1418
     10 N         -10.1290   24.5850   30.5870 N.3     1  ASP1       -0.2388
     11 CA        -10.7880   23.4650   29.9540 C.3     1  ASP1        0.1386
     12 C         -12.1340   23.1430   30.5770 C.2     1  ASP1        0.2245
     13 O         -12.2260   22.5470   31.6340 O.2     1  ASP1       -0.2868
     14 CB         -9.7740   22.3340   30.0720 C.3     1  ASP1        0.0667
     15 CG        -10.2620   21.0230   29.5160 C.2     1  ASP1        0.0522
     16 OD1       -11.3780   20.9590   28.9920 O.co2   1  ASP1       -0.5491
     17 OD2        -9.5080   20.0570   29.6240 O.co2   1  ASP1       -0.5491
     18 H          -9.9150   24.5360   31.5670 H       1  ASP1        0.1418
     19 N         -14.1050   20.8820   29.7160 N.3     1  GLY1       -0.2365
     20 CA        -14.4160   19.4630   29.7220 C.3     1  GLY1        0.1694
     21 C         -13.9540   18.7750   30.9740 C.2     1  GLY1        0.2402
     22 O         -14.4810   17.7620   31.3920 O.2     1  GLY1       -0.2735
     23 H         -13.2970   21.2600   29.2840 H       1  GLY1        0.1419
     24 N         -12.8900   19.3330   31.5420 N.am    2  ALA2       -0.2972
     25 CA        -12.2240   18.6200   32.6250 C.3     2  ALA2        0.1486
     26 C         -12.8650   18.9230   33.9410 C.2     2  ALA2        0.2406
     27 O         -13.3430   20.0180   34.1870 O.2     2  ALA2       -0.2733
     28 CB        -10.7770   19.0420   32.7170 C.3     2  ALA2        0.0312
     29 H         -12.6660   20.2940   31.3880 H       2  ALA2        0.1499
     30 N         -12.8780   17.9110   34.7930 N.am    3  ASP3       -0.2967
     31 CA        -13.5820   18.1470   36.0500 C.3     3  ASP3        0.1542
     32 C         -12.6500   18.7690   37.0410 C.2     3  ASP3        0.2410
     33 O         -12.9950   19.7030   37.7410 O.2     3  ASP3       -0.2733
     34 CB        -14.1280   16.8650   36.7120 C.3     3  ASP3        0.0706
     35 CG        -15.0880   16.0150   35.8800 C.2     3  ASP3        0.0525
     36 OD1       -15.9280   16.5300   35.1340 O.co2   3  ASP3       -0.5491
     37 OD2       -14.9900   14.7960   35.9890 O.co2   3  ASP3       -0.5491
     38 H         -12.4540   17.0400   34.5610 H       3  ASP3        0.1499
     39 N         -11.4480   18.2070   37.1030 N.am    4  ASP4       -0.2967
     40 CA        -10.5010   18.6950   38.1030 C.3     4  ASP4        0.1542
     41 C          -9.3630   19.3240   37.3740 C.2     4  ASP4        0.2411
     42 O          -9.2920   19.1830   36.1710 O.2     4  ASP4       -0.2733
     43 CB         -9.9060   17.5430   38.9070 C.3     4  ASP4        0.0706
     44 CG        -10.9350   16.8650   39.7570 C.2     4  ASP4        0.0525
     45 OD2       -11.7310   17.5640   40.3880 O.co2   4  ASP4       -0.5491
     46 OD1       -10.9270   15.6410   39.7960 O.co2   4  ASP4       -0.5491
     47 H         -11.1330   17.5600   36.4150 H       4  ASP4        0.1499
     48 N          -8.5000   19.9860   38.1110 N.am    5  THR5       -0.2951
     49 CA         -7.3570   20.6700   37.5460 C.3     5  THR5        0.1757
     50 C          -6.1560   19.7550   37.6690 C.2     5  THR5        0.2431
     51 O          -5.8880   19.2550   38.7520 O.2     5  THR5       -0.2732
     52 CB         -7.2040   21.9100   38.4420 C.3     5  THR5        0.1373
     53 OG1        -8.3700   22.7440   38.3000 O.3     5  THR5       -0.3823
     54 CG2        -5.9400   22.7200   38.1830 C.3     5  THR5        0.0340
     55 H          -8.5680   19.9690   39.1050 H       5  THR5        0.1499
     56 HG1        -9.1620   22.2730   38.5980 H       5  THR5        0.2104
     57 N          -5.4330   19.5110   36.5780 N.am    6  VAL6       -0.2979
     58 CA         -4.2420   18.6710   36.7390 C.3     6  VAL6        0.1368
     59 C          -3.0280   19.3130   36.1280 C.2     6  VAL6        0.2266
     60 O          -3.0690   19.8270   35.0150 O.2     6  VAL6       -0.2865
     61 CB         -4.4620   17.2670   36.1630 C.3     6  VAL6        0.0256
     62 CG1        -5.1030   17.3360   34.7910 C.3     6  VAL6        0.0022
     63 CG2        -3.1800   16.4340   36.1670 C.3     6  VAL6        0.0022
     64 H          -5.6340   19.9630   35.7090 H       6  VAL6        0.1498
     65 N          -6.6280    9.5820   37.5490 N.3     1  ILE1       -0.2380
     66 CA         -7.7400   10.1710   36.7730 C.3     1  ILE1        0.1447
     67 C          -7.8280    9.5540   35.4110 C.2     1  ILE1        0.2383
     68 O          -6.8700    8.9540   34.9390 O.2     1  ILE1       -0.2736
     69 CB         -7.6530   11.6950   36.5760 C.3     1  ILE1        0.0246
     70 CG1        -6.3240   12.1760   36.0070 C.3     1  ILE1        0.0019
     71 CG2        -7.9990   12.4240   37.8650 C.3     1  ILE1        0.0019
     72 CD1        -6.2160   13.6920   35.8670 C.3     1  ILE1        0.0001
     73 H          -5.7140    9.4660   37.1540 H       1  ILE1        0.1418
     74 N          -8.9940    9.7120   34.7920 N.am    2  GLY2       -0.2955
     75 CA         -9.1950    9.0950   33.4970 C.3     2  GLY2        0.1757
     76 C          -9.2890   10.1540   32.4470 C.2     2  GLY2        0.2429
     77 O          -9.8300   11.2230   32.6760 O.2     2  GLY2       -0.2732
     78 H          -9.6950   10.3300   35.1400 H       2  GLY2        0.1499
     79 N          -8.7160    9.8210   31.3120 N.am    3  GLY3       -0.2952
     80 CA         -8.5860   10.7330   30.1930 C.3     3  GLY3        0.1757
     81 C          -8.7180    9.8940   28.9720 C.2     3  GLY3        0.2428
     82 O          -9.1870    8.7750   29.0340 O.2     3  GLY3       -0.2732
     83 H          -8.3190    8.9090   31.1760 H       3  GLY3        0.1499
     84 N          -8.2840   10.4330   27.8570 N.am    4  ILE4       -0.2969
     85 CA         -8.3450    9.6610   26.6360 C.3     4  ILE4        0.1485
     86 C          -7.0090    8.9960   26.4680 C.2     4  ILE4        0.2407
     87 O          -5.9540    9.5930   26.5680 O.2     4  ILE4       -0.2733
     88 CB         -8.6810   10.6270   25.5030 C.3     4  ILE4        0.0269
     89 CG1       -10.0770   10.3150   25.0050 C.3     4  ILE4        0.0021
     90 CG2        -7.7330   10.6680   24.2970 C.3     4  ILE4        0.0022
     91 CD1       -10.5490   11.3310   23.9650 C.3     4  ILE4        0.0001
     92 H          -7.7000   11.2400   27.8980 H       4  ILE4        0.1499
     93 N          -7.0760    7.7000   26.2430 N.am    5  GLY5       -0.2953
     94 CA         -5.8140    6.9700   26.2850 C.3     5  GLY5        0.1757
     95 C          -5.6600    6.0900   27.5110 C.2     5  GLY5        0.2429
     96 O          -5.1150    4.9970   27.4710 O.2     5  GLY5       -0.2732
     97 H          -7.9550    7.2310   26.1810 H       5  GLY5        0.1499
     98 N          -6.1770    6.5630   28.6250 N.am    6  GLY6       -0.2952
     99 CA         -5.9750    5.7000   29.7650 C.3     6  GLY6        0.1757
    100 C          -6.0780    6.4960   31.0120 C.2     6  GLY6        0.2428
    101 O          -6.7180    7.5340   31.0720 O.2     6  GLY6       -0.2732
    102 H          -6.6370    7.4460   28.7220 H       6  GLY6        0.1499
    103 N          -5.4650    5.9660   32.0290 N.am    7  PHE7       -0.2967
    104 CA         -5.5890    6.6720   33.2730 C.3     7  PHE7        0.1530
    105 C          -4.1980    7.1390   33.6100 C.2     7  PHE7        0.2409
    106 O          -3.2080    6.5630   33.1790 O.2     7  PHE7       -0.2733
    107 CB         -6.0900    5.6780   34.3150 C.3     7  PHE7        0.0553
    108 CG         -7.6100    5.5650   34.3900 C.ar    7  PHE7       -0.0200
    109 CD1        -8.3640    5.0460   33.3140 C.ar    7  PHE7       -0.0042
    110 CD2        -8.2690    5.9690   35.5810 C.ar    7  PHE7       -0.0042
    111 CE1        -9.7700    4.9310   33.4300 C.ar    7  PHE7       -0.0003
    112 CE2        -9.6670    5.8610   35.7010 C.ar    7  PHE7       -0.0003
    113 CZ        -10.4120    5.3400   34.6200 C.ar    7  PHE7       -0.0000
    114 H          -4.8050    5.2230   31.9420 H       7  PHE7        0.1499
    115 N          -4.1410    8.2050   34.3880 N.am    8  ILE8       -0.2980
    116 CA         -2.8600    8.5340   34.9980 C.3     8  ILE8        0.1368
    117 C          -3.0260    8.6030   36.5100 C.2     8  ILE8        0.2266
    118 O          -4.1160    8.5010   37.0600 O.2     8  ILE8       -0.2865
    119 CB         -2.2770    9.8480   34.4450 C.3     8  ILE8        0.0256
    120 CG1        -2.9830   11.1240   34.9290 C.3     8  ILE8        0.0021
    121 CG2        -2.2130    9.7920   32.9120 C.3     8  ILE8        0.0022
    122 CD1        -2.2230   12.4030   34.6120 C.3     8  ILE8        0.0001
    123 H          -4.9940    8.6480   34.6820 H       8  ILE8        0.1498
    124 N           1.6470   13.6310   35.7820 N.3     1  PRO1       -0.2103
    125 CA          2.3800   13.8300   34.5280 C.3     1  PRO1        0.1487
    126 C           1.5040   14.1920   33.3620 C.2     1  PRO1        0.2386
    127 O           1.4170   13.4480   32.4050 O.2     1  PRO1       -0.2736
    128 CB          3.0020   12.4480   34.3280 C.3     1  PRO1        0.0282
    129 CG          1.9460   11.4910   34.8810 C.3     1  PRO1        0.0208
    130 CD          1.4260   12.2270   36.1080 C.3     1  PRO1        0.0893
    131 N           0.8330   15.3240   33.4320 N.am    2  THR2       -0.2953
    132 CA         -0.0390   15.6340   32.2950 C.3     2  THR2        0.1759
    133 C           0.7820   16.3270   31.2240 C.2     2  THR2        0.2463
    134 O           1.7470   16.9800   31.5570 O.2     2  THR2       -0.2730
    135 CB         -1.1480   16.5080   32.8770 C.3     2  THR2        0.1373
    136 OG1        -2.0710   16.9400   31.8800 O.3     2  THR2       -0.3823
    137 CG2        -0.5540   17.7020   33.5950 C.3     2  THR2        0.0340
    138 H           1.0090   15.9760   34.1720 H       2  THR2        0.1499
    139 HG1        -2.2850   17.8740   32.0300 H       2  THR2        0.2104
    140 N           0.4340   16.1760   29.9420 N.am    3  PRO3       -0.2716
    141 CA          1.1620   16.9210   28.9120 C.3     3  PRO3        0.1518
    142 C           0.9600   18.4140   28.9490 C.2     3  PRO3        0.2408
    143 O           1.7850   19.1750   28.4820 O.2     3  PRO3       -0.2733
    144 CB          0.5980   16.3670   27.5970 C.3     3  PRO3        0.0310
    145 CG         -0.0240   15.0250   27.9340 C.3     3  PRO3        0.0237
    146 CD         -0.5410   15.2640   29.3550 C.3     3  PRO3        0.0939
    147 N          -0.1940   18.8260   29.4590 N.am    4  VAL4       -0.2980
    148 CA         -0.5490   20.2360   29.4120 C.3     4  VAL4        0.1368
    149 C          -1.2330   20.4960   30.7170 C.2     4  VAL4        0.2266
    150 O          -1.7420   19.5800   31.3310 O.2     4  VAL4       -0.2865
    151 CB         -1.4690   20.4680   28.1960 C.3     4  VAL4        0.0256
    152 CG2        -2.7490   19.6430   28.2980 C.3     4  VAL4        0.0022
    153 CG1        -1.7980   21.9430   27.9370 C.3     4  VAL4        0.0022
    154 H          -0.8170   18.2140   29.9490 H       4  VAL4        0.1498
    155 N          -4.1640   21.7760   32.9720 N.3     1  ILE1       -0.2391
    156 CA         -5.6120   21.9430   32.7490 C.3     1  ILE1        0.1330
    157 C          -6.2350   22.6660   33.9250 C.2     1  ILE1        0.2241
    158 O          -6.1370   22.1980   35.0530 O.2     1  ILE1       -0.2868
    159 CB         -6.2600   20.5530   32.7190 C.3     1  ILE1        0.0233
    160 CG1        -5.6390   19.5240   31.7670 C.3     1  ILE1        0.0018
    161 CG2        -7.7460   20.6880   32.4450 C.3     1  ILE1        0.0019
    162 CD1        -5.8150   19.9420   30.3170 C.3     1  ILE1        0.0001
    163 H          -3.8680   21.1600   33.7070 H       1  ILE1        0.1418
    164 N         -13.1870   22.4050   35.8980 N.3     1  ARG1       -0.2391
    165 CA        -14.3410   23.1230   36.3780 C.3     1  ARG1        0.1332
    166 C         -14.3870   23.3600   37.8540 C.2     1  ARG1        0.2241
    167 O         -14.9030   24.3740   38.3160 O.2     1  ARG1       -0.2868
    168 CB        -15.6000   22.4590   35.8800 C.3     1  ARG1        0.0286
    169 CG        -15.6190   22.4990   34.3500 C.3     1  ARG1        0.0447
    170 CD        -16.9210   21.9470   33.8050 C.3     1  ARG1        0.1739
    171 NE        -17.4690   20.9540   34.7190 N.pl3   1  ARG1       -0.2651
    172 CZ        -17.2550   19.6580   34.5710 C.cat   1  ARG1        0.3417
    173 NH1       -16.5650   19.1690   33.5310 N.pl3   1  ARG1       -0.2918
    174 NH2       -17.7650   18.8530   35.5050 N.pl3   1  ARG1       -0.2918
    175 H         -13.2740   21.5590   35.3630 H       1  ARG1        0.1418
    176 HE        -17.9940   21.2780   35.5060 H       1  ARG1        0.2586
    177 HH11      -16.1860   19.7840   32.8390 H       1  ARG1        0.2545
    178 HH12      -16.4280   18.1820   33.4460 H       1  ARG1        0.2545
    179 HH21      -18.2790   19.2410   36.2700 H       1  ARG1        0.2545
    180 HH22      -17.6350   17.8640   35.4390 H       1  ARG1        0.2545
@<TRIPOS>UNITY_ATOM_ATTR
16 1
charge -1
36 1
charge -1
45 1
charge -1
@<TRIPOS>BOND
     1     1     2    1
     2     1     9    1
     3     2     5    1
     4     2     3    1
     5     3     4    2
     6     5     6    1
     7     6     7    1
     8     6     8    1
     9    10    11    1
    10    10    18    1
    11    11    14    1
    12    11    12    1
    13    12    13    2
    14    14    15    1
    15    15    16   ar
    16    15    17   ar
    17    19    23    1
    18    19    20    1
    19    20    21    1
    20    21    22    2
    21    21    24   am
    22    24    29    1
    23    24    25    1
    24    25    28    1
    25    25    26    1
    26    26    27    2
    27    26    30   am
    28    30    38    1
    29    30    31    1
    30    31    34    1
    31    31    32    1
    32    32    39   am
    33    32    33    2
    34    34    35    1
    35    35    36   ar
    36    35    37   ar
    37    39    47    1
    38    39    40    1
    39    40    41    1
    40    40    43    1
    41    41    42    2
    42    41    48   am
    43    43    44    1
    44    44    46   ar
    45    44    45   ar
    46    48    49    1
    47    48    55    1
    48    49    50    1
    49    49    52    1
    50    50    57   am
    51    50    51    2
    52    52    54    1
    53    52    53    1
    54    53    56    1
    55    57    64    1
    56    57    58    1
    57    58    59    1
    58    58    61    1
    59    59    60    2
    60    61    62    1
    61    61    63    1
    62    65    66    1
    63    65    73    1
    64    66    67    1
    65    66    69    1
    66    67    74   am
    67    67    68    2
    68    69    70    1
    69    69    71    1
    70    70    72    1
    71    74    75    1
    72    74    78    1
    73    75    76    1
    74    76    79   am
    75    76    77    2
    76    79    80    1
    77    79    83    1
    78    80    81    1
    79    81    84   am
    80    81    82    2
    81    84    85    1
    82    84    92    1
    83    85    88    1
    84    85    86    1
    85    86    93   am
    86    86    87    2
    87    88    90    1
    88    88    89    1
    89    89    91    1
    90    93    97    1
    91    93    94    1
    92    94    95    1
    93    95    96    2
    94    95    98   am
    95    98   102    1
    96    98    99    1
    97    99   100    1
    98   100   101    2
    99   100   103   am
   100   103   114    1
   101   103   104    1
   102   104   105    1
   103   104   107    1
   104   105   106    2
   105   105   115   am
   106   107   108    1
   107   108   109   ar
   108   108   110   ar
   109   109   111   ar
   110   110   112   ar
   111   111   113   ar
   112   112   113   ar
   113   115   123    1
   114   115   116    1
   115   116   119    1
   116   116   117    1
   117   117   118    2
   118   119   121    1
   119   119   120    1
   120   120   122    1
   121   124   125    1
   122   124   130    1
   123   125   126    1
   124   125   128    1
   125   126   127    2
   126   126   131   am
   127   128   129    1
   128   129   130    1
   129   131   132    1
   130   131   138    1
   131   132   133    1
   132   132   135    1
   133   133   140   am
   134   133   134    2
   135   135   136    1
   136   135   137    1
   137   136   139    1
   138   140   141    1
   139   140   146    1
   140   141   144    1
   141   141   142    1
   142   142   143    2
   143   142   147   am
   144   144   145    1
   145   145   146    1
   146   147   148    1
   147   147   154    1
   148   148   151    1
   149   148   149    1
   150   149   150    2
   151   151   153    1
   152   151   152    1
   153   155   156    1
   154   155   163    1
   155   156   159    1
   156   156   157    1
   157   157   158    2
   158   159   160    1
   159   159   161    1
   160   160   162    1
   161   164   175    1
   162   164   165    1
   163   165   168    1
   164   165   166    1
   165   166   167    2
   166   168   169    1
   167   169   170    1
   168   170   171    1
   169   171   172    1
   170   171   176    1
   171   172   173    2
   172   172   174    1
   173   173   177    1
   174   173   178    1
   175   174   180    1
   176   174   179    1
