@<TRIPOS>MOLECULE
./1k0n/protein.pdb
 58 54 0 0 0
SMALL
GASTEIGER

@<TRIPOS>ATOM
      1 N          21.1260   -0.9790   36.5180 N.3     1  ALA1       -0.1231
      2 CA         21.1100   -2.2810   37.1940 C.3     1  ALA1        0.1694
      3 C          21.7410   -2.2480   38.5820 C.2     1  ALA1        0.2592
      4 O          22.7420   -1.5440   38.8320 O.2     1  ALA1       -0.2718
      5 CB         21.7740   -3.3620   36.3390 C.3     1  ALA1        0.0304
      6 N          21.1730   -3.0460   39.4660 N.am    2  ALA2       -0.1966
      7 CA         21.7100   -3.2300   40.8010 C.3     2  ALA2        0.1728
      8 C          23.0470   -3.9500   40.7330 C.2     2  ALA2        0.2616
      9 O          23.3080   -4.7040   39.8050 O.2     2  ALA2       -0.2715
     10 CB         20.7380   -4.0660   41.6690 C.3     2  ALA2        0.0334
     11 N          23.8650   -3.7230   41.7450 N.am    3  LEU3       -0.1977
     12 CA         25.1420   -4.4100   41.9090 C.3     3  LEU3        0.1596
     13 C          25.0160   -5.7100   42.6820 C.2     3  LEU3        0.2287
     14 O          25.7880   -6.6610   42.4530 O.2     3  LEU3       -0.2864
     15 CB         26.0890   -3.5150   42.6940 C.3     3  LEU3        0.0297
     16 CG         26.4830   -2.2040   42.0330 C.3     3  LEU3        0.0022
     17 CD2        27.3220   -1.3820   43.0080 C.3     3  LEU3        0.0001
     18 CD1        27.2930   -2.4760   40.7750 C.3     3  LEU3        0.0001
     19 N          29.3960   -2.3550   47.2540 N.3     1  GLY1       -0.1225
     20 CA         28.9910   -0.9620   47.2460 C.3     1  GLY1        0.1811
     21 C          29.9260   -0.0640   48.0250 C.2     1  GLY1        0.2280
     22 O          30.1110   -0.2410   49.2280 O.2     1  GLY1       -0.2866
     23 N          19.6640   -1.0380   46.8880 N.3     1  ASP1       -0.1227
     24 CA         21.0300   -1.4190   46.5070 C.3     1  ASP1        0.1748
     25 C          22.1410   -0.4300   46.8590 C.2     1  ASP1        0.2596
     26 O          23.2970   -0.6350   46.4610 O.2     1  ASP1       -0.2718
     27 CB         21.0400   -1.6560   44.9910 C.3     1  ASP1        0.0701
     28 CG         22.2060   -2.5210   44.5330 C.2     1  ASP1        0.0523
     29 OD1        23.0040   -2.0340   43.7320 O.co2   1  ASP1       -0.5491
     30 OD2        22.3880   -3.6770   44.9180 O.co2   1  ASP1       -0.5491
     31 N          21.8180    0.6360   47.5700 N.am    2  GLY2       -0.1942
     32 CA         22.8080    1.6710   47.8480 C.3     2  GLY2        0.2014
     33 C          22.0540    2.9830   47.8460 C.2     2  GLY2        0.2639
     34 O          20.8470    2.9760   48.0800 O.2     2  GLY2       -0.2714
     35 N          22.7170    4.0810   47.5090 N.am    3  ASN3       -0.1958
     36 CA         22.0420    5.3760   47.6380 C.3     3  ASN3        0.1819
     37 C          21.4000    5.9380   46.3700 C.2     3  ASN3        0.2621
     38 O          20.9070    7.0640   46.3730 O.2     3  ASN3       -0.2715
     39 CB         23.0070    6.4060   48.2280 C.3     3  ASN3        0.1195
     40 CG         23.2750    6.1640   49.6980 C.2     3  ASN3        0.2630
     41 OD1        22.3490    5.9470   50.4850 O.2     3  ASN3       -0.2716
     42 ND2        24.5500    6.2100   50.0810 N.am    3  ASN3       -0.0877
     43 N          21.4640    5.1920   45.2780 N.am    4  GLU4       -0.1977
     44 CA         20.8500    5.6350   44.0340 C.3     4  GLU4        0.1600
     45 C          19.7260    4.6670   43.7030 C.2     4  GLU4        0.2287
     46 O          19.8360    3.4780   44.0180 O.2     4  GLU4       -0.2864
     47 CB         21.8760    5.5970   42.9060 C.3     4  GLU4        0.0356
     48 CG         23.0220    6.6010   43.0950 C.3     4  GLU4        0.0439
     49 CD         22.5590    8.0440   43.1350 C.2     4  GLU4        0.0504
     50 OE1        21.6290    8.4200   42.3720 O.co2   4  GLU4       -0.5492
     51 OE2        23.1380    8.8300   43.9180 O.co2   4  GLU4       -0.5492
     52 N          17.7970    2.1040   41.5550 N.3     1  THR1       -0.1218
     53 CA         18.1550    1.1480   40.5180 C.3     1  THR1        0.1862
     54 C          16.8980    0.4960   39.9270 C.2     1  THR1        0.2287
     55 O          15.7610    0.7240   40.3960 O.2     1  THR1       -0.2866
     56 CB         19.0290    0.0160   41.0970 C.3     1  THR1        0.1770
     57 OG1        18.3100   -0.6230   42.1750 O.3     1  THR1       -0.2211
     58 CG2        20.2790    0.5790   41.7420 C.3     1  THR1        0.0375
@<TRIPOS>UNITY_ATOM_ATTR
29 1
charge -1
50 1
charge -1
@<TRIPOS>BOND
     1     1     2    1
     2     2     5    1
     3     2     3    1
     4     3     4    2
     5     3     6   am
     6     6     7    1
     7     7     8    1
     8     7    10    1
     9     8     9    2
    10     8    11   am
    11    11    12    1
    12    12    13    1
    13    12    15    1
    14    13    14    2
    15    15    16    1
    16    16    18    1
    17    16    17    1
    18    19    20    1
    19    20    21    1
    20    21    22    2
    21    23    24    1
    22    24    27    1
    23    24    25    1
    24    25    26    2
    25    25    31   am
    26    27    28    1
    27    28    29   ar
    28    28    30   ar
    29    31    32    1
    30    32    33    1
    31    33    35   am
    32    33    34    2
    33    35    36    1
    34    36    37    1
    35    36    39    1
    36    37    43   am
    37    37    38    2
    38    39    40    1
    39    40    42   am
    40    40    41    2
    41    43    44    1
    42    44    47    1
    43    44    45    1
    44    45    46    2
    45    47    48    1
    46    48    49    1
    47    49    50   ar
    48    49    51   ar
    49    52    53    1
    50    53    54    1
    51    53    56    1
    52    54    55    2
    53    56    58    1
    54    56    57    1
