@<TRIPOS>MOLECULE
./1k0n/protein.pdb
 137 131 0 0 0
SMALL
GASTEIGER

@<TRIPOS>ATOM
      1 N          -1.9450    1.7320   30.8680 N.3     1  LYS1       -0.1245
      2 CA         -3.3710    1.6380   31.1360 C.3     1  LYS1        0.1561
      3 C          -3.9720    2.9210   31.7070 C.2     1  LYS1        0.2260
      4 O          -3.4220    3.5100   32.6600 O.2     1  LYS1       -0.2867
      5 CB         -3.6130    0.5040   32.1180 C.3     1  LYS1        0.0271
      6 CG         -5.0320    0.0360   32.1820 C.3     1  LYS1        0.0035
      7 CD         -5.1900   -0.9400   33.3130 C.3     1  LYS1        0.0206
      8 CE         -6.6290   -1.3720   33.4640 C.3     1  LYS1        0.1093
      9 NZ         -6.6740   -2.4730   34.4650 N.3     1  LYS1       -0.1314
     10 N          -4.0450    2.6270   37.5650 N.3     1  ASN1       -0.1225
     11 CA         -3.2860    1.8210   38.4970 C.3     1  ASN1        0.1785
     12 C          -2.6400    0.6530   37.7520 C.2     1  ASN1        0.2597
     13 O          -3.3400   -0.1390   37.1060 O.2     1  ASN1       -0.2718
     14 CB         -4.1810    1.2260   39.5610 C.3     1  ASN1        0.1169
     15 CG         -3.4400    0.1840   40.3810 C.2     1  ASN1        0.2627
     16 OD1        -3.6400   -1.0240   40.2210 O.2     1  ASN1       -0.2716
     17 ND2        -2.5800    0.6540   41.2480 N.am    1  ASN1       -0.0877
     18 N          -1.3210    0.5070   37.8460 N.am    2  CYS2       -0.1956
     19 CA         -0.6550   -0.6080   37.1760 C.3     2  CYS2        0.1831
     20 C           0.8380   -0.5610   37.5160 C.2     2  CYS2        0.2505
     21 O           1.5410    0.3200   37.0250 O.2     2  CYS2       -0.2726
     22 CB         -0.8360   -0.5490   35.6460 C.3     2  CYS2        0.0996
     23 SG          0.0660   -1.8570   34.7240 S.3     2  CYS2       -0.0797
     24 N           1.3210   -1.4970   38.3220 N.am    3  PRO3       -0.2490
     25 CA          2.7230   -1.4370   38.7670 C.3     3  PRO3        0.1619
     26 C           3.7020   -1.6160   37.6230 C.2     3  PRO3        0.2605
     27 O           4.8310   -1.1310   37.7390 O.2     3  PRO3       -0.2715
     28 CB          2.8900   -2.6370   39.7050 C.3     3  PRO3        0.0570
     29 CG          1.5970   -3.3680   39.7680 C.2     3  PRO3       -0.0077
     30 CD          0.5980   -2.6590   38.8770 C.2     3  PRO3        0.0634
     31 N           3.3290   -2.3590   36.5870 N.am    4  PHE4       -0.1960
     32 CA          4.2250   -2.5450   35.4410 C.3     4  PHE4        0.1771
     33 C           4.4560   -1.2160   34.6820 C.2     4  PHE4        0.2620
     34 O           5.5790   -0.8950   34.2560 O.2     4  PHE4       -0.2715
     35 CB          3.6770   -3.6090   34.4680 C.3     4  PHE4        0.0574
     36 CG          3.3540   -4.9490   35.1080 C.ar    4  PHE4       -0.0200
     37 CD1         4.3250   -5.9270   35.2250 C.ar    4  PHE4       -0.0042
     38 CD2         2.0470   -5.2400   35.5460 C.ar    4  PHE4       -0.0042
     39 CE1         4.0160   -7.1720   35.7810 C.ar    4  PHE4       -0.0003
     40 CE2         1.7290   -6.4760   36.1060 C.ar    4  PHE4       -0.0003
     41 CZ          2.7110   -7.4470   36.2200 C.ar    4  PHE4       -0.0000
     42 N           3.3890   -0.4540   34.4590 N.am    5  SER5       -0.1950
     43 CA          3.5430    0.8220   33.7820 C.3     5  SER5        0.1924
     44 C           4.4180    1.7290   34.6130 C.2     5  SER5        0.2314
     45 O           5.2800    2.4230   34.0880 O.2     5  SER5       -0.2863
     46 CB          2.1720    1.5290   33.6590 C.3     5  SER5        0.2116
     47 OG          1.2910    0.7360   32.8910 O.3     5  SER5       -0.2180
     48 N          -0.4610   -4.6450   27.4430 N.3     1  LEU1       -0.1231
     49 CA         -0.1860   -3.3420   28.0720 C.3     1  LEU1        0.1678
     50 C           0.5970   -3.6170   29.3660 C.2     1  LEU1        0.2434
     51 O           0.2590   -4.5560   30.0970 O.2     1  LEU1       -0.2733
     52 CB         -1.5120   -2.6630   28.4210 C.3     1  LEU1        0.0284
     53 CG         -1.7940   -1.2010   28.0680 C.3     1  LEU1        0.0019
     54 CD1        -1.4090   -0.8860   26.6490 C.3     1  LEU1        0.0001
     55 CD2        -3.2710   -0.9180   28.3050 C.3     1  LEU1        0.0001
     56 N           1.6390   -2.8320   29.6670 N.am    2  PRO2       -0.2729
     57 CA          2.0880   -1.7190   28.8300 C.3     2  PRO2        0.1401
     58 C           2.8060   -2.2230   27.6040 C.2     2  PRO2        0.2269
     59 O           3.0850   -3.4180   27.4890 O.2     2  PRO2       -0.2865
     60 CB          3.1180   -1.0010   29.7230 C.3     2  PRO2        0.0296
     61 CG          3.6110   -2.0150   30.6220 C.3     2  PRO2        0.0237
     62 CD          2.4780   -2.9970   30.8630 C.3     2  PRO2        0.0939
     63 N           4.0990   -8.5130   47.3300 N.3     1  PHE1       -0.1241
     64 CA          2.9470   -8.1890   46.4930 C.3     1  PHE1        0.1605
     65 C           1.9940   -9.3720   46.4090 C.2     1  PHE1        0.2264
     66 O           0.7680   -9.1950   46.5440 O.2     1  PHE1       -0.2867
     67 CB          3.3780   -7.7110   45.1050 C.3     1  PHE1        0.0534
     68 CG          2.3110   -6.8950   44.3910 C.ar    1  PHE1       -0.0203
     69 CD2         1.7510   -5.7800   45.0060 C.ar    1  PHE1       -0.0042
     70 CD1         1.8880   -7.2320   43.1260 C.ar    1  PHE1       -0.0042
     71 CE2         0.7810   -5.0150   44.3670 C.ar    1  PHE1       -0.0003
     72 CE1         0.9030   -6.4730   42.4800 C.ar    1  PHE1       -0.0003
     73 CZ          0.3520   -5.3610   43.1060 C.ar    1  PHE1       -0.0000
     74 N          -1.8720   -9.5910   47.8190 N.3     1  SER1       -0.1217
     75 CA         -2.9770   -9.9070   46.9310 C.3     1  SER1        0.1889
     76 C          -3.8780  -10.9430   47.5860 C.2     1  SER1        0.2288
     77 O          -5.0990  -10.7520   47.6690 O.2     1  SER1       -0.2866
     78 CB         -2.4280  -10.4150   45.5910 C.3     1  SER1        0.2089
     79 OG         -1.8970   -9.3340   44.8390 O.3     1  SER1       -0.2183
     80 N          -7.8250  -10.1980   48.9990 N.3     1  LYS1       -0.1245
     81 CA         -8.9380  -10.8090   48.2750 C.3     1  LYS1        0.1561
     82 C          -9.7160  -11.7210   49.2100 C.2     1  LYS1        0.2260
     83 O         -10.8750  -12.0670   48.9310 O.2     1  LYS1       -0.2867
     84 CB         -8.4460  -11.6390   47.0850 C.3     1  LYS1        0.0271
     85 CG         -7.6870  -10.8180   46.0360 C.3     1  LYS1        0.0035
     86 CD         -7.0200  -11.7330   45.0080 C.3     1  LYS1        0.0206
     87 CE         -6.3740  -10.9330   43.8650 C.3     1  LYS1        0.1093
     88 NZ         -5.9980  -11.8490   42.7340 N.3     1  LYS1       -0.1314
     89 N           4.8810   -1.4470   43.6690 N.3     1  LYS1       -0.1245
     90 CA          4.0730   -2.4820   44.3360 C.3     1  LYS1        0.1561
     91 C           3.8430   -2.1830   45.8260 C.2     1  LYS1        0.2260
     92 O           2.7290   -2.3200   46.3570 O.2     1  LYS1       -0.2867
     93 CB          4.7190   -3.8580   44.1420 C.3     1  LYS1        0.0271
     94 CG          4.6410   -4.3700   42.7100 C.3     1  LYS1        0.0035
     95 CD          5.6130   -5.5280   42.4760 C.3     1  LYS1        0.0206
     96 CE          5.4200   -6.0980   41.0680 C.3     1  LYS1        0.1093
     97 NZ          6.4990   -7.1200   40.8900 N.3     1  LYS1       -0.1314
     98 N           1.2240    0.4350   46.2660 N.3     1  ILE1       -0.1245
     99 CA         -0.1320   -0.1420   46.1560 C.3     1  ILE1        0.1561
    100 C          -0.5200   -0.8840   47.4330 C.2     1  ILE1        0.2260
    101 O          -1.6390   -0.7260   47.9380 O.2     1  ILE1       -0.2867
    102 CB         -0.2450   -1.0600   44.9130 C.3     1  ILE1        0.0252
    103 CG1        -0.1800   -0.2200   43.6270 C.3     1  ILE1        0.0019
    104 CG2        -1.5310   -1.9330   44.9730 C.3     1  ILE1        0.0019
    105 CD1         0.2200   -1.0590   42.3530 C.3     1  ILE1        0.0001
    106 N          -5.9670    4.3210   42.6980 N.3     1  ILE1       -0.1245
    107 CA         -5.5020    3.0340   43.2140 C.3     1  ILE1        0.1561
    108 C          -6.6110    2.2920   43.9910 C.2     1  ILE1        0.2260
    109 O          -6.8780    1.1240   43.7680 O.2     1  ILE1       -0.2867
    110 CB         -4.2460    3.1960   44.0750 C.3     1  ILE1        0.0252
    111 CG1        -3.1250    3.8120   43.2280 C.3     1  ILE1        0.0019
    112 CG2        -3.7680    1.8240   44.6050 C.3     1  ILE1        0.0019
    113 CD1        -1.8160    3.9970   43.9750 C.3     1  ILE1        0.0001
    114 N          -9.2680    1.0640   41.6050 N.3     1  ALA1       -0.1231
    115 CA         -8.7400   -0.0800   40.8760 C.3     1  ALA1        0.1694
    116 C          -8.9230   -1.3970   41.6460 C.2     1  ALA1        0.2592
    117 O          -8.9840   -2.4950   41.0540 O.2     1  ALA1       -0.2718
    118 CB         -7.2340    0.1540   40.5720 C.3     1  ALA1        0.0304
    119 N          -9.0010   -1.2920   42.9680 N.am    2  TYR2       -0.1976
    120 CA         -9.1510   -2.4780   43.8220 C.3     2  TYR2        0.1639
    121 C         -10.5750   -2.7280   44.3330 C.2     2  TYR2        0.2290
    122 O         -10.8510   -3.6920   45.0640 O.2     2  TYR2       -0.2864
    123 CB         -8.1770   -2.3880   44.9810 C.3     2  TYR2        0.0560
    124 CG         -6.8620   -3.0220   44.5860 C.ar    2  TYR2       -0.0198
    125 CD2        -6.5970   -4.3420   44.9070 C.ar    2  TYR2       -0.0009
    126 CD1        -5.9180   -2.3160   43.8420 C.ar    2  TYR2       -0.0009
    127 CE2        -5.4220   -4.9470   44.5490 C.ar    2  TYR2        0.0417
    128 CE1        -4.6810   -2.9360   43.4710 C.ar    2  TYR2        0.0417
    129 CZ         -4.4810   -4.2450   43.8200 C.ar    2  TYR2        0.1957
    130 OH         -3.3340   -4.8830   43.4720 O.3     2  TYR2       -0.2866
    131 N         -11.7050   -6.1850   43.8440 N.3     1  VAL1       -0.1245
    132 CA        -10.6700   -7.1460   44.1670 C.3     1  VAL1        0.1561
    133 C         -10.6090   -7.2870   45.6680 C.2     1  VAL1        0.2260
    134 O         -10.6410   -8.3850   46.1950 O.2     1  VAL1       -0.2867
    135 CB         -9.2920   -6.5860   43.7430 C.3     1  VAL1        0.0252
    136 CG2        -8.1740   -7.5600   44.0760 C.3     1  VAL1        0.0019
    137 CG1        -9.3120   -6.2080   42.2600 C.3     1  VAL1        0.0019
@<TRIPOS>BOND
     1     1     2    1
     2     2     3    1
     3     2     5    1
     4     3     4    2
     5     5     6    1
     6     6     7    1
     7     7     8    1
     8     8     9    1
     9    10    11    1
    10    11    12    1
    11    11    14    1
    12    12    13    2
    13    12    18   am
    14    14    15    1
    15    15    16    2
    16    15    17   am
    17    18    19    1
    18    19    22    1
    19    19    20    1
    20    20    21    2
    21    20    24   am
    22    22    23    1
    23    24    25    1
    24    24    30    1
    25    25    26    1
    26    25    28    1
    27    26    31   am
    28    26    27    2
    29    28    29    1
    30    29    30    2
    31    31    32    1
    32    32    35    1
    33    32    33    1
    34    33    34    2
    35    33    42   am
    36    35    36    1
    37    36    37   ar
    38    36    38   ar
    39    37    39   ar
    40    38    40   ar
    41    39    41   ar
    42    40    41   ar
    43    42    43    1
    44    43    46    1
    45    43    44    1
    46    44    45    2
    47    46    47    1
    48    48    49    1
    49    49    52    1
    50    49    50    1
    51    50    56   am
    52    50    51    2
    53    52    53    1
    54    53    54    1
    55    53    55    1
    56    56    57    1
    57    56    62    1
    58    57    58    1
    59    57    60    1
    60    58    59    2
    61    60    61    1
    62    61    62    1
    63    63    64    1
    64    64    67    1
    65    64    65    1
    66    65    66    2
    67    67    68    1
    68    68    70   ar
    69    68    69   ar
    70    69    71   ar
    71    70    72   ar
    72    71    73   ar
    73    72    73   ar
    74    74    75    1
    75    75    78    1
    76    75    76    1
    77    76    77    2
    78    78    79    1
    79    80    81    1
    80    81    84    1
    81    81    82    1
    82    82    83    2
    83    84    85    1
    84    85    86    1
    85    86    87    1
    86    87    88    1
    87    89    90    1
    88    90    93    1
    89    90    91    1
    90    91    92    2
    91    93    94    1
    92    94    95    1
    93    95    96    1
    94    96    97    1
    95    98    99    1
    96    99   102    1
    97    99   100    1
    98   100   101    2
    99   102   103    1
   100   102   104    1
   101   103   105    1
   102   106   107    1
   103   107   108    1
   104   107   110    1
   105   108   109    2
   106   110   111    1
   107   110   112    1
   108   111   113    1
   109   114   115    1
   110   115   118    1
   111   115   116    1
   112   116   117    2
   113   116   119   am
   114   119   120    1
   115   120   121    1
   116   120   123    1
   117   121   122    2
   118   123   124    1
   119   124   126   ar
   120   124   125   ar
   121   125   127   ar
   122   126   128   ar
   123   127   129   ar
   124   128   129   ar
   125   129   130    1
   126   131   132    1
   127   132   135    1
   128   132   133    1
   129   133   134    2
   130   135   137    1
   131   135   136    1
