@<TRIPOS>MOLECULE
./1i8z/protein.pdb
 293 290 0 0 0
SMALL
GASTEIGER

@<TRIPOS>ATOM
      1 N           8.1540   -0.4910   10.3770 N.3     1  TRP1       -0.1227
      2 CA          7.4330   -1.5260   11.1290 C.3     1  TRP1        0.1734
      3 C           6.4490   -2.3770   10.3510 C.2     1  TRP1        0.2596
      4 O           5.8700   -1.9450    9.3410 O.2     1  TRP1       -0.2718
      5 CB          6.7120   -0.9150   12.3360 C.3     1  TRP1        0.0527
      6 CG          5.4620   -0.1190   12.0030 C.2     1  TRP1       -0.0139
      7 CD1         5.3840    1.2240   11.7230 C.2     1  TRP1        0.0907
      8 CD2         4.1110   -0.6090   11.9920 C.3     1  TRP1        0.0819
      9 NE1         4.0710    1.5960   11.5520 N.2     1  TRP1       -0.2482
     10 CE2         3.2670    0.4930   11.7080 C.2     1  TRP1        0.0665
     11 CE3         3.5290   -1.8720   12.2000 C.2     1  TRP1       -0.0164
     12 CZ2         1.8700    0.3710   11.6310 C.2     1  TRP1        0.0153
     13 CZ3         2.1380   -1.9910   12.1230 C.2     1  TRP1       -0.0038
     14 CH2         1.3280   -0.8740   11.8400 C.2     1  TRP1        0.0009
     15 N           6.2080   -3.5680   10.8740 N.am    2  GLY2       -0.1942
     16 CA          5.2870   -4.4740   10.2310 C.3     2  GLY2        0.2014
     17 C           4.9740   -5.5620   11.2150 C.2     2  GLY2        0.2638
     18 O           5.0320   -5.3450   12.4270 O.2     2  GLY2       -0.2714
     19 N           4.6430   -6.7360   10.6990 N.am    3  TYR3       -0.1973
     20 CA          4.3150   -7.8580   11.5580 C.3     3  TYR3        0.1639
     21 C           5.1990   -9.0350   11.2330 C.2     3  TYR3        0.2290
     22 O           4.9150  -10.1620   11.6310 O.2     3  TYR3       -0.2864
     23 CB          2.8420   -8.2290   11.4010 C.3     3  TYR3        0.0560
     24 CG          1.9210   -7.1440   11.8950 C.ar    3  TYR3       -0.0198
     25 CD2         1.5610   -7.0810   13.2370 C.ar    3  TYR3       -0.0009
     26 CD1         1.4350   -6.1660   11.0280 C.ar    3  TYR3       -0.0009
     27 CE2         0.7470   -6.0780   13.7100 C.ar    3  TYR3        0.0417
     28 CE1         0.6050   -5.1520   11.4910 C.ar    3  TYR3        0.0417
     29 CZ          0.2660   -5.1220   12.8410 C.ar    3  TYR3        0.1957
     30 OH         -0.5940   -4.1720   13.3190 O.3     3  TYR3       -0.2866
     31 N           9.1440   -3.2310   17.7710 N.3     1  TRP1       -0.1241
     32 CA          8.5960   -1.8770   17.8260 C.3     1  TRP1        0.1602
     33 C           9.1940   -0.9470   18.8460 C.2     1  TRP1        0.2264
     34 O           9.3890    0.2330   18.5680 O.2     1  TRP1       -0.2867
     35 CB          7.0830   -1.9100   18.0010 C.3     1  TRP1        0.0513
     36 CG          6.3700   -2.5560   16.8600 C.2     1  TRP1       -0.0140
     37 CD1         6.9120   -2.9620   15.6690 C.2     1  TRP1        0.0907
     38 CD2         4.9850   -2.9110   16.8110 C.3     1  TRP1        0.0819
     39 NE1         5.9510   -3.5560   14.8920 N.2     1  TRP1       -0.2482
     40 CE2         4.7580   -3.5360   15.5640 C.2     1  TRP1        0.0665
     41 CE3         3.9150   -2.7660   17.7010 C.2     1  TRP1       -0.0164
     42 CZ2         3.5040   -4.0120   15.1870 C.2     1  TRP1        0.0153
     43 CZ3         2.6740   -3.2400   17.3250 C.2     1  TRP1       -0.0038
     44 CH2         2.4780   -3.8560   16.0770 C.2     1  TRP1        0.0009
     45 N          -8.9990    1.7520    1.9540 N.3     1  LEU1       -0.1245
     46 CA         -7.6020    1.7950    1.5500 C.3     1  LEU1        0.1561
     47 C          -6.7390    0.7380    2.2150 C.2     1  LEU1        0.2260
     48 O          -6.8960    0.4340    3.4030 O.2     1  LEU1       -0.2867
     49 CB         -7.0400    3.1770    1.8900 C.3     1  LEU1        0.0270
     50 CG         -5.5360    3.3620    2.0870 C.3     1  LEU1        0.0019
     51 CD1        -4.8860    3.6980    0.7490 C.3     1  LEU1        0.0001
     52 CD2        -5.2910    4.4800    3.0880 C.3     1  LEU1        0.0001
     53 N          -3.3510    0.1770    3.5730 N.3     1  ASN1       -0.1225
     54 CA         -2.1970    0.9820    3.9660 C.3     1  ASN1        0.1785
     55 C          -0.9460    0.1460    4.2400 C.2     1  ASN1        0.2598
     56 O           0.0290    0.6380    4.8120 O.2     1  ASN1       -0.2718
     57 CB         -2.5330    1.8580    5.1770 C.3     1  ASN1        0.1169
     58 CG         -2.9410    1.0550    6.3880 C.2     1  ASN1        0.2627
     59 OD1        -2.6530   -0.1330    6.4960 O.2     1  ASN1       -0.2716
     60 ND2        -3.6090    1.7070    7.3160 N.am    1  ASN1       -0.0877
     61 N          -0.9880   -1.1220    3.8540 N.am    2  GLY2       -0.1942
     62 CA          0.1510   -1.9890    4.0660 C.3     2  GLY2        0.2014
     63 C           0.1740   -2.6420    5.4300 C.2     2  GLY2        0.2639
     64 O           1.0380   -3.4750    5.6960 O.2     2  GLY2       -0.2714
     65 N          -0.7430   -2.2420    6.3120 N.am    3  HIS3       -0.1959
     66 CA         -0.8370   -2.8110    7.6610 C.3     3  HIS3        0.1784
     67 C          -2.2200   -3.4580    7.8710 C.2     3  HIS3        0.2620
     68 O          -2.3770   -4.3920    8.6540 O.2     3  HIS3       -0.2715
     69 CB         -0.5950   -1.7200    8.6950 C.3     3  HIS3        0.0745
     70 CG          0.6860   -0.9840    8.4820 C.2     3  HIS3        0.0653
     71 ND1         0.7320    0.3590    8.1770 N.2     3  HIS3       -0.2310
     72 CD2         1.9690   -1.4160    8.4710 C.3     3  HIS3        0.1683
     73 CE1         1.9890    0.7210    7.9850 C.2     3  HIS3        0.1939
     74 NE2         2.7580   -0.3390    8.1580 N.2     3  HIS3       -0.2440
     75 N          -3.2090   -2.9550    7.1460 N.am    4  ALA4       -0.1963
     76 CA         -4.5770   -3.4460    7.2020 C.3     4  ALA4        0.1728
     77 C          -5.2980   -2.6210    6.1590 C.2     4  ALA4        0.2616
     78 O          -4.6590   -1.8920    5.4030 O.2     4  ALA4       -0.2715
     79 CB         -5.1780   -3.1670    8.5910 C.3     4  ALA4        0.0334
     80 N          -6.6140   -2.7680    6.0660 N.am    5  PHE5       -0.1960
     81 CA         -7.3650   -1.9390    5.1450 C.3     5  PHE5        0.1771
     82 C          -8.2650   -1.1290    6.0540 C.2     5  PHE5        0.2619
     83 O          -8.7260   -1.6250    7.0920 O.2     5  PHE5       -0.2715
     84 CB         -8.1480   -2.7540    4.1020 C.3     5  PHE5        0.0574
     85 CG         -9.1870   -3.6700    4.6750 C.ar    5  PHE5       -0.0200
     86 CD1        -8.8890   -4.9990    4.9360 C.ar    5  PHE5       -0.0042
     87 CD2       -10.4720   -3.2090    4.9370 C.ar    5  PHE5       -0.0042
     88 CE1        -9.8610   -5.8580    5.4510 C.ar    5  PHE5       -0.0003
     89 CE2       -11.4400   -4.0580    5.4470 C.ar    5  PHE5       -0.0003
     90 CZ        -11.1350   -5.3850    5.7040 C.ar    5  PHE5       -0.0000
     91 N          -8.3960    0.1500    5.7490 N.am    6  ASN6       -0.1972
     92 CA         -9.2160    1.0230    6.5560 C.3     6  ASN6        0.1688
     93 C         -10.3700    1.5430    5.7310 C.2     6  ASN6        0.2292
     94 O         -10.2150    1.8180    4.5390 O.2     6  ASN6       -0.2864
     95 CB         -8.4310    2.2530    7.0210 C.3     6  ASN6        0.1181
     96 CG         -7.1750    1.9180    7.7990 C.2     6  ASN6        0.2629
     97 OD1        -6.2730    2.7460    7.8910 O.2     6  ASN6       -0.2716
     98 ND2        -7.1050    0.7350    8.3620 N.am    6  ASN6       -0.0877
     99 N         -12.5190    4.6700    5.6640 N.3     1  GLU1       -0.1245
    100 CA        -12.5110    5.9830    6.2700 C.3     1  GLU1        0.1565
    101 C         -13.8630    6.6230    6.1470 C.2     1  GLU1        0.2260
    102 O         -14.5760    6.4200    5.1570 O.2     1  GLU1       -0.2867
    103 CB        -11.4870    6.8700    5.6000 C.3     1  GLU1        0.0329
    104 CG        -10.1030    6.2900    5.5780 C.3     1  GLU1        0.0437
    105 CD         -9.2620    6.9070    4.4920 C.2     1  GLU1        0.0504
    106 OE1        -9.8310    7.5870    3.6200 O.co2   1  GLU1       -0.5492
    107 OE2        -8.0370    6.7000    4.4860 O.co2   1  GLU1       -0.5492
    108 N         -13.9270    7.9480   12.6930 N.3     1  ILE1       -0.1231
    109 CA        -13.0690    8.4050   11.6130 C.3     1  ILE1        0.1692
    110 C         -12.7530    7.2250   10.7140 C.2     1  ILE1        0.2591
    111 O         -12.7340    7.3450    9.4950 O.2     1  ILE1       -0.2718
    112 CB        -11.7840    9.1060   12.1440 C.3     1  ILE1        0.0266
    113 CG1       -10.8740    9.4900   10.9780 C.3     1  ILE1        0.0019
    114 CG2       -11.0540    8.2370   13.1770 C.3     1  ILE1        0.0020
    115 CD1        -9.7310   10.4010   11.3860 C.3     1  ILE1        0.0001
    116 N         -12.5630    6.0550   11.2940 N.am    2  GLN2       -0.1979
    117 CA        -12.2800    4.8950   10.4680 C.3     2  GLN2        0.1601
    118 C         -12.4500    3.5960   11.2110 C.2     2  GLN2        0.2287
    119 O         -12.5800    3.5820   12.4250 O.2     2  GLN2       -0.2864
    120 CB        -10.8580    4.9710    9.8950 C.3     2  GLN2        0.0394
    121 CG         -9.7540    5.0720   10.9430 C.3     2  GLN2        0.0908
    122 CD         -8.9670    3.7910   11.0840 C.2     2  GLN2        0.2608
    123 OE1        -9.5330    2.7100   11.1580 O.2     2  GLN2       -0.2717
    124 NE2        -7.6480    3.9060   11.1280 N.am    2  GLN2       -0.0878
    125 N         -11.1230   -0.6580   10.8670 N.3     1  HIS1       -0.1227
    126 CA        -10.2110   -1.5460   10.1820 C.3     1  HIS1        0.1749
    127 C         -10.2740   -2.8050   10.9720 C.2     1  HIS1        0.2596
    128 O         -10.8800   -2.8460   12.0480 O.2     1  HIS1       -0.2718
    129 CB         -8.7850   -1.0030   10.2300 C.3     1  HIS1        0.0718
    130 CG         -8.2970   -0.7220   11.6150 C.2     1  HIS1        0.0650
    131 ND1        -8.3750    0.5130   12.2240 N.2     1  HIS1       -0.2310
    132 CD2        -7.7280   -1.5500   12.5280 C.3     1  HIS1        0.1683
    133 CE1        -7.8690    0.4060   13.4560 C.2     1  HIS1        0.1939
    134 NE2        -7.4630   -0.8240   13.6880 N.2     1  HIS1       -0.2440
    135 N          -9.6390   -3.8320   10.4480 N.am    2  PHE2       -0.1962
    136 CA         -9.6330   -5.1010   11.1190 C.3     2  PHE2        0.1771
    137 C          -8.2160   -5.5700   11.3400 C.2     2  PHE2        0.2619
    138 O          -7.2700   -5.0750   10.7330 O.2     2  PHE2       -0.2715
    139 CB        -10.3400   -6.1470   10.2510 C.3     2  PHE2        0.0574
    140 CG        -11.8060   -5.8670   10.0050 C.ar    2  PHE2       -0.0200
    141 CD1       -12.2040   -5.0300    8.9650 C.ar    2  PHE2       -0.0042
    142 CD2       -12.7830   -6.4990   10.7630 C.ar    2  PHE2       -0.0042
    143 CE1       -13.5580   -4.8350    8.6760 C.ar    2  PHE2       -0.0003
    144 CE2       -14.1370   -6.3070   10.4790 C.ar    2  PHE2       -0.0003
    145 CZ        -14.5200   -5.4760    9.4320 C.ar    2  PHE2       -0.0000
    146 N          -8.0990   -6.5480   12.2160 N.am    3  HIS3       -0.1973
    147 CA         -6.8490   -7.2200   12.5020 C.3     3  HIS3        0.1652
    148 C          -7.3420   -8.6370   12.3780 C.2     3  HIS3        0.2291
    149 O          -8.4500   -8.9490   12.8510 O.2     3  HIS3       -0.2864
    150 CB         -6.3840   -6.9520   13.9260 C.3     3  HIS3        0.0731
    151 CG         -5.9700   -5.5360   14.1510 C.2     3  HIS3        0.0652
    152 ND1        -4.7270   -5.0330   13.8420 N.2     3  HIS3       -0.2310
    153 CD2        -6.6890   -4.4810   14.6000 C.3     3  HIS3        0.1683
    154 CE1        -4.7370   -3.7220   14.1040 C.2     3  HIS3        0.1939
    155 NE2        -5.9120   -3.3440   14.5680 N.2     3  HIS3       -0.2440
    156 N          -6.8240   -8.8980   18.7200 N.3     1  GLU1       -0.1245
    157 CA         -5.7350   -8.3190   19.4750 C.3     1  GLU1        0.1565
    158 C          -6.0450   -8.5170   20.9340 C.2     1  GLU1        0.2260
    159 O          -5.1890   -8.9420   21.6940 O.2     1  GLU1       -0.2867
    160 CB         -5.5880   -6.8630   19.1170 C.3     1  GLU1        0.0329
    161 CG         -5.2200   -6.7140   17.6820 C.3     1  GLU1        0.0437
    162 CD         -4.5190   -5.4360   17.4360 C.2     1  GLU1        0.0504
    163 OE2        -5.1070   -4.3760   17.7080 O.co2   1  GLU1       -0.5492
    164 OE1        -3.3730   -5.5000   16.9860 O.co2   1  GLU1       -0.5492
    165 N         -12.0060   -2.6670   14.7390 N.3     1  HIS1       -0.1241
    166 CA        -11.7440   -1.5140   15.5550 C.3     1  HIS1        0.1618
    167 C         -12.4040   -0.3520   14.8860 C.2     1  HIS1        0.2264
    168 O         -12.0730   -0.0360   13.7360 O.2     1  HIS1       -0.2867
    169 CB        -10.2400   -1.2380   15.6390 C.3     1  HIS1        0.0704
    170 CG         -9.4810   -2.2430   16.4480 C.2     1  HIS1        0.0649
    171 ND1        -8.1360   -2.4350   16.2910 N.2     1  HIS1       -0.2310
    172 CD2        -9.9400   -3.0950   17.3950 C.3     1  HIS1        0.1683
    173 CE1        -7.8160   -3.3890   17.1380 C.2     1  HIS1        0.1939
    174 NE2        -8.8760   -3.8150   17.8280 N.2     1  HIS1       -0.2440
    175 N         -12.6210    3.3010   15.1180 N.3     1  VAL1       -0.1245
    176 CA        -11.8580    4.3860   15.7080 C.3     1  VAL1        0.1561
    177 C         -12.6040    5.7040   15.7590 C.2     1  VAL1        0.2260
    178 O         -13.0760    6.1870   14.7330 O.2     1  VAL1       -0.2867
    179 CB        -10.5200    4.5820   14.9560 C.3     1  VAL1        0.0252
    180 CG2        -9.6360    5.5860   15.7040 C.3     1  VAL1        0.0019
    181 CG1        -9.8100    3.2530   14.8110 C.3     1  VAL1        0.0019
    182 N          -8.4630   15.1000   14.7250 N.3     1  PHE1       -0.1241
    183 CA         -7.8470   13.8370   15.0740 C.3     1  PHE1        0.1605
    184 C          -6.4100   13.9940   15.5790 C.2     1  PHE1        0.2264
    185 O          -6.0150   13.3590   16.5620 O.2     1  PHE1       -0.2867
    186 CB         -7.8960   12.9210   13.8650 C.3     1  PHE1        0.0534
    187 CG         -7.3030   11.5970   14.1110 C.ar    1  PHE1       -0.0203
    188 CD2        -8.0030   10.6410   14.8200 C.ar    1  PHE1       -0.0042
    189 CD1        -6.0240   11.3100   13.6690 C.ar    1  PHE1       -0.0042
    190 CE2        -7.4410    9.4140   15.0920 C.ar    1  PHE1       -0.0003
    191 CE1        -5.4490   10.0760   13.9390 C.ar    1  PHE1       -0.0003
    192 CZ         -6.1640    9.1290   14.6530 C.ar    1  PHE1       -0.0000
    193 N          -4.8870   12.5890   19.3860 N.3     1  VAL1       -0.1245
    194 CA         -3.8260   11.6220   19.6420 C.3     1  VAL1        0.1561
    195 C          -2.7100   12.1840   20.5220 C.2     1  VAL1        0.2260
    196 O          -1.6690   11.5650   20.6790 O.2     1  VAL1       -0.2867
    197 CB         -3.2280   11.0210   18.3480 C.3     1  VAL1        0.0252
    198 CG2        -4.2990   10.2930   17.5820 C.3     1  VAL1        0.0019
    199 CG1        -2.5740   12.0880   17.5030 C.3     1  VAL1        0.0019
    200 N          -8.9280    9.2520   22.0920 N.3     1  LEU1       -0.1245
    201 CA         -9.5540    8.2640   21.2370 C.3     1  LEU1        0.1561
    202 C         -10.3780    7.2770   22.0120 C.2     1  LEU1        0.2260
    203 O         -10.1100    7.0050   23.1880 O.2     1  LEU1       -0.2867
    204 CB         -8.4920    7.4610   20.5010 C.3     1  LEU1        0.0270
    205 CG         -7.5020    8.2360   19.6460 C.3     1  LEU1        0.0019
    206 CD2        -6.5630    7.2530   18.9750 C.3     1  LEU1        0.0001
    207 CD1        -8.2540    9.0750   18.6150 C.3     1  LEU1        0.0001
    208 N         -11.8080    3.4850   20.9840 N.3     1  VAL1       -0.1245
    209 CA        -11.8860    2.5080   19.9300 C.3     1  VAL1        0.1561
    210 C         -12.8860    1.4880   20.4030 C.2     1  VAL1        0.2260
    211 O         -12.8570    1.0710   21.5580 O.2     1  VAL1       -0.2867
    212 CB        -10.5210    1.8670   19.6090 C.3     1  VAL1        0.0252
    213 CG1       -10.6830    0.8610   18.4830 C.3     1  VAL1        0.0019
    214 CG2        -9.5390    2.9400   19.1870 C.3     1  VAL1        0.0019
    215 N          -3.9610    2.0040   24.5570 N.3     1  SER1       -0.1202
    216 CA         -3.2590    2.6960   23.4790 C.3     1  SER1        0.2020
    217 C          -3.6210    2.1400   22.0980 C.2     1  SER1        0.2619
    218 O          -4.4090    1.2000   21.9760 O.2     1  SER1       -0.2717
    219 CB         -1.7600    2.4640   23.6590 C.3     1  SER1        0.2103
    220 OG         -1.4440    1.1080   23.3500 O.3     1  SER1       -0.2182
    221 N          -3.0150    2.7290   21.0730 N.am    2  LEU2       -0.1965
    222 CA         -3.1740    2.2700   19.6970 C.3     2  LEU2        0.1728
    223 C          -2.4330    0.9550   19.7380 C.2     2  LEU2        0.2617
    224 O          -1.4620    0.8340   20.4860 O.2     2  LEU2       -0.2715
    225 CB         -2.4150    3.1910   18.7480 C.3     2  LEU2        0.0311
    226 CG         -2.8220    4.6510   18.7760 C.3     2  LEU2        0.0022
    227 CD1        -1.9720    5.4400   17.7860 C.3     2  LEU2        0.0001
    228 CD2        -4.2850    4.7400   18.4390 C.3     2  LEU2        0.0001
    229 N          -2.8510   -0.0250   18.9500 N.am    3  THR3       -0.1937
    230 CA         -2.1540   -1.2920   18.9840 C.3     3  THR3        0.2028
    231 C          -1.0780   -1.3820   17.9110 C.2     3  THR3        0.2643
    232 O          -0.4620   -2.4300   17.7180 O.2     3  THR3       -0.2714
    233 CB         -3.1130   -2.4520   18.8350 C.3     3  THR3        0.1808
    234 OG1        -3.8670   -2.2700   17.6390 O.3     3  THR3       -0.2208
    235 CG2        -4.0550   -2.5340   20.0270 C.3     3  THR3        0.0379
    236 N          -0.9140   -0.3130   17.1480 N.am    4  THR4       -0.1937
    237 CA          0.1150   -0.2920   16.1350 C.3     4  THR4        0.2013
    238 C           0.8950    0.9840   16.3890 C.2     4  THR4        0.2484
    239 O           0.4410    1.8610   17.1400 O.2     4  THR4       -0.2729
    240 CB         -0.4610   -0.2220   14.6860 C.3     4  THR4        0.1807
    241 OG1        -1.0630    1.0580   14.4670 O.3     4  THR4       -0.2208
    242 CG2        -1.5040   -1.2900   14.4580 C.3     4  THR4        0.0379
    243 N           2.1450    1.0420   15.8970 N.am    5  PRO5       -0.2715
    244 CA          2.9490    2.2510   16.0770 C.3     5  PRO5        0.1521
    245 C           2.0520    3.3600   15.5490 C.2     5  PRO5        0.2440
    246 O           1.2850    3.1310   14.6150 O.2     5  PRO5       -0.2731
    247 CB          4.1100    2.0010   15.1280 C.3     5  PRO5        0.0310
    248 CG          4.3570    0.5490   15.3230 C.3     5  PRO5        0.0237
    249 CD          2.9540   -0.0430   15.3150 C.3     5  PRO5        0.0939
    250 N           2.1590    4.5760   16.0800 N.am    6  PRO6       -0.2727
    251 CA          3.0420    5.0620   17.1390 C.3     6  PRO6        0.1402
    252 C           2.7050    4.5920   18.5630 C.2     6  PRO6        0.2269
    253 O           3.3290    5.0370   19.5220 O.2     6  PRO6       -0.2865
    254 CB          2.9550    6.5780   16.9730 C.3     6  PRO6        0.0296
    255 CG          1.5550    6.7810   16.5020 C.3     6  PRO6        0.0237
    256 CD          1.3890    5.6850   15.4850 C.3     6  PRO6        0.0939
    257 N           0.4150    5.2920   20.6160 N.3     1  LEU1       -0.1245
    258 CA          0.0200    6.3570   21.5290 C.3     1  LEU1        0.1561
    259 C          -0.9780    5.8850   22.5760 C.2     1  LEU1        0.2260
    260 O          -1.9220    5.1690   22.2770 O.2     1  LEU1       -0.2867
    261 CB         -0.5520    7.5290   20.7440 C.3     1  LEU1        0.0270
    262 CG          0.4580    8.0050   19.6930 C.3     1  LEU1        0.0019
    263 CD1        -0.1080    9.1520   18.8930 C.3     1  LEU1        0.0001
    264 CD2         1.7450    8.4230   20.3880 C.3     1  LEU1        0.0001
    265 N          -6.0790    5.9970   24.0480 N.3     1  VAL1       -0.1245
    266 CA         -7.3290    5.2840   23.8600 C.3     1  VAL1        0.1561
    267 C          -8.1080    4.7520   25.0420 C.2     1  VAL1        0.2260
    268 O          -7.5540    4.1420   25.9470 O.2     1  VAL1       -0.2867
    269 CB         -7.1110    4.0840   22.9080 C.3     1  VAL1        0.0252
    270 CG2        -8.4330    3.4180   22.5630 C.3     1  VAL1        0.0019
    271 CG1        -6.3840    4.5230   21.6470 C.3     1  VAL1        0.0019
    272 N         -10.5430    2.0790   25.5620 N.3     1  TRP1       -0.1241
    273 CA        -11.0160    0.9330   24.8160 C.3     1  TRP1        0.1602
    274 C         -12.3680    0.4800   25.2990 C.2     1  TRP1        0.2264
    275 O         -12.6370    0.4530   26.5020 O.2     1  TRP1       -0.2867
    276 CB        -10.0170   -0.2230   24.9150 C.3     1  TRP1        0.0510
    277 CG         -8.8910   -0.0940   23.9640 C.2     1  TRP1       -0.0168
    278 CD1        -7.6750    0.4690   24.1990 C.3     1  TRP1        0.1477
    279 CD2        -8.8800   -0.5260   22.6020 C.ar    1  TRP1        0.0113
    280 NE1        -6.9060    0.4190   23.0650 N.2     1  TRP1       -0.2659
    281 CE2        -7.6220   -0.1900   22.0700 C.ar    1  TRP1        0.0758
    282 CE3        -9.8130   -1.1650   21.7810 C.ar    1  TRP1        0.0009
    283 CZ2        -7.2740   -0.4730   20.7510 C.ar    1  TRP1        0.0187
    284 CZ3        -9.4660   -1.4490   20.4760 C.ar    1  TRP1        0.0001
    285 CH2        -8.2100   -1.1040   19.9740 C.ar    1  TRP1        0.0015
    286 N          -1.9360   -9.4630   11.2950 N.3     1  ASN1       -0.1240
    287 CA         -1.5650   -8.0870   11.5320 C.3     1  ASN1        0.1653
    288 C          -2.0860   -7.6880   12.9120 C.2     1  ASN1        0.2266
    289 O          -2.7090   -6.6490   13.0740 O.2     1  ASN1       -0.2867
    290 CB         -2.1280   -7.1740   10.4380 C.3     1  ASN1        0.1155
    291 CG         -3.6160   -7.3630   10.2190 C.2     1  ASN1        0.2627
    292 OD1        -4.2260   -8.2890   10.7520 O.2     1  ASN1       -0.2716
    293 ND2        -4.2040   -6.4850    9.4280 N.am    1  ASN1       -0.0877
@<TRIPOS>UNITY_ATOM_ATTR
106 1
charge -1
163 1
charge -1
@<TRIPOS>BOND
     1     1     2    1
     2     2     3    1
     3     2     5    1
     4     3     4    2
     5     3    15   am
     6     5     6    1
     7     6     7    2
     8     6     8    1
     9     7     9    1
    10     8    10    1
    11     8    11    1
    12     9    10    2
    13    10    12    1
    14    11    13    2
    15    12    14    2
    16    13    14    1
    17    15    16    1
    18    16    17    1
    19    17    19   am
    20    17    18    2
    21    19    20    1
    22    20    21    1
    23    20    23    1
    24    21    22    2
    25    23    24    1
    26    24    26   ar
    27    24    25   ar
    28    25    27   ar
    29    26    28   ar
    30    27    29   ar
    31    28    29   ar
    32    29    30    1
    33    31    32    1
    34    32    35    1
    35    32    33    1
    36    33    34    2
    37    35    36    1
    38    36    37    2
    39    36    38    1
    40    37    39    1
    41    38    40    1
    42    38    41    1
    43    39    40    2
    44    40    42    1
    45    41    43    2
    46    42    44    2
    47    43    44    1
    48    45    46    1
    49    46    49    1
    50    46    47    1
    51    47    48    2
    52    49    50    1
    53    50    51    1
    54    50    52    1
    55    53    54    1
    56    54    55    1
    57    54    57    1
    58    55    61   am
    59    55    56    2
    60    57    58    1
    61    58    59    2
    62    58    60   am
    63    61    62    1
    64    62    63    1
    65    63    64    2
    66    63    65   am
    67    65    66    1
    68    66    67    1
    69    66    69    1
    70    67    75   am
    71    67    68    2
    72    69    70    1
    73    70    71    2
    74    70    72    1
    75    71    73    1
    76    72    74    1
    77    73    74    2
    78    75    76    1
    79    76    77    1
    80    76    79    1
    81    77    78    2
    82    77    80   am
    83    80    81    1
    84    81    84    1
    85    81    82    1
    86    82    91   am
    87    82    83    2
    88    84    85    1
    89    85    86   ar
    90    85    87   ar
    91    86    88   ar
    92    87    89   ar
    93    88    90   ar
    94    89    90   ar
    95    91    92    1
    96    92    93    1
    97    92    95    1
    98    93    94    2
    99    95    96    1
   100    96    97    2
   101    96    98   am
   102    99   100    1
   103   100   103    1
   104   100   101    1
   105   101   102    2
   106   103   104    1
   107   104   105    1
   108   105   106   ar
   109   105   107   ar
   110   108   109    1
   111   109   110    1
   112   109   112    1
   113   110   111    2
   114   110   116   am
   115   112   113    1
   116   112   114    1
   117   113   115    1
   118   116   117    1
   119   117   120    1
   120   117   118    1
   121   118   119    2
   122   120   121    1
   123   121   122    1
   124   122   124   am
   125   122   123    2
   126   125   126    1
   127   126   129    1
   128   126   127    1
   129   127   135   am
   130   127   128    2
   131   129   130    1
   132   130   131    2
   133   130   132    1
   134   131   133    1
   135   132   134    1
   136   133   134    2
   137   135   136    1
   138   136   139    1
   139   136   137    1
   140   137   138    2
   141   137   146   am
   142   139   140    1
   143   140   141   ar
   144   140   142   ar
   145   141   143   ar
   146   142   144   ar
   147   143   145   ar
   148   144   145   ar
   149   146   147    1
   150   147   148    1
   151   147   150    1
   152   148   149    2
   153   150   151    1
   154   151   152    2
   155   151   153    1
   156   152   154    1
   157   153   155    1
   158   154   155    2
   159   156   157    1
   160   157   160    1
   161   157   158    1
   162   158   159    2
   163   160   161    1
   164   161   162    1
   165   162   164   ar
   166   162   163   ar
   167   165   166    1
   168   166   167    1
   169   166   169    1
   170   167   168    2
   171   169   170    1
   172   170   171    2
   173   170   172    1
   174   171   173    1
   175   172   174    1
   176   173   174    2
   177   175   176    1
   178   176   179    1
   179   176   177    1
   180   177   178    2
   181   179   181    1
   182   179   180    1
   183   182   183    1
   184   183   186    1
   185   183   184    1
   186   184   185    2
   187   186   187    1
   188   187   189   ar
   189   187   188   ar
   190   188   190   ar
   191   189   191   ar
   192   190   192   ar
   193   191   192   ar
   194   193   194    1
   195   194   197    1
   196   194   195    1
   197   195   196    2
   198   197   199    1
   199   197   198    1
   200   200   201    1
   201   201   204    1
   202   201   202    1
   203   202   203    2
   204   204   205    1
   205   205   207    1
   206   205   206    1
   207   208   209    1
   208   209   212    1
   209   209   210    1
   210   210   211    2
   211   212   213    1
   212   212   214    1
   213   215   216    1
   214   216   217    1
   215   216   219    1
   216   217   221   am
   217   217   218    2
   218   219   220    1
   219   221   222    1
   220   222   225    1
   221   222   223    1
   222   223   229   am
   223   223   224    2
   224   225   226    1
   225   226   227    1
   226   226   228    1
   227   229   230    1
   228   230   231    1
   229   230   233    1
   230   231   236   am
   231   231   232    2
   232   233   234    1
   233   233   235    1
   234   236   237    1
   235   237   240    1
   236   237   238    1
   237   238   243   am
   238   238   239    2
   239   240   242    1
   240   240   241    1
   241   243   249    1
   242   243   244    1
   243   244   247    1
   244   244   245    1
   245   245   246    2
   246   245   250   am
   247   247   248    1
   248   248   249    1
   249   250   256    1
   250   250   251    1
   251   251   254    1
   252   251   252    1
   253   252   253    2
   254   254   255    1
   255   255   256    1
   256   257   258    1
   257   258   261    1
   258   258   259    1
   259   259   260    2
   260   261   262    1
   261   262   263    1
   262   262   264    1
   263   265   266    1
   264   266   269    1
   265   266   267    1
   266   267   268    2
   267   269   271    1
   268   269   270    1
   269   272   273    1
   270   273   276    1
   271   273   274    1
   272   274   275    2
   273   276   277    1
   274   277   279    2
   275   277   278    1
   276   278   280    1
   277   279   282   ar
   278   279   281   ar
   279   280   281    2
   280   281   283   ar
   281   282   284   ar
   282   283   285   ar
   283   284   285   ar
   284   286   287    1
   285   287   290    1
   286   287   288    1
   287   288   289    2
   288   290   291    1
   289   291   293   am
   290   291   292    2
