@<TRIPOS>MOLECULE
./1afk/protein.pdb
 174 170 0 0 0
SMALL
GASTEIGER

@<TRIPOS>ATOM
      1 N          33.0240   -6.0990   29.1700 N.3     1  GLN1       -0.1231
      2 CA         33.6650   -4.8060   29.1980 C.3     1  GLN1        0.1698
      3 C          32.7660   -3.5730   29.0560 C.2     1  GLN1        0.2592
      4 O          33.1220   -2.5030   29.5490 O.2     1  GLN1       -0.2718
      5 CB         34.7410   -4.7450   28.1180 C.3     1  GLN1        0.0381
      6 CG         35.7990   -5.8140   28.2100 C.3     1  GLN1        0.0905
      7 CD         36.9810   -5.5040   27.3070 C.2     1  GLN1        0.2608
      8 OE1        38.1180   -5.4630   27.7600 O.2     1  GLN1       -0.2717
      9 NE2        36.7130   -5.2620   26.0350 N.am    1  GLN1       -0.0878
     10 N          31.5950   -3.7150   28.4300 N.am    2  HIS2       -0.1976
     11 CA         30.7710   -2.5400   28.1580 C.3     2  HIS2        0.1656
     12 C          29.3120   -2.5330   28.5150 C.2     2  HIS2        0.2291
     13 O          28.6740   -1.5050   28.3860 O.2     2  HIS2       -0.2864
     14 CB         30.8900   -2.1760   26.6740 C.3     2  HIS2        0.0771
     15 CG         32.3040   -1.9990   26.2040 C.ar    2  HIS2        0.0820
     16 ND1        33.0770   -0.9150   26.5550 N.ar    2  HIS2       -0.2267
     17 CD2        33.0860   -2.7770   25.4150 C.ar    2  HIS2        0.1154
     18 CE1        34.2740   -1.0290   26.0050 C.ar    2  HIS2        0.1986
     19 NE2        34.3030   -2.1520   25.3090 N.ar    2  HIS2       -0.2212
     20 N          46.7440   -4.1760   33.8290 N.3     1  ARG1       -0.1245
     21 CA         47.1730   -2.7950   33.9020 C.3     1  ARG1        0.1563
     22 C          45.8930   -2.0180   34.0700 C.2     1  ARG1        0.2260
     23 O          44.8070   -2.5890   33.9900 O.2     1  ARG1       -0.2867
     24 CB         47.8320   -2.3710   32.5900 C.3     1  ARG1        0.0307
     25 CG         46.8540   -2.2340   31.4220 C.3     1  ARG1        0.0489
     26 CD         47.5140   -1.6170   30.2020 C.3     1  ARG1        0.2205
     27 NE         46.5290   -0.9650   29.3400 N.pl3   1  ARG1       -0.0865
     28 CZ         46.3590   -1.2240   28.0460 C.cat   1  ARG1        0.5346
     29 NH2        47.1090   -2.1300   27.4270 N.pl3   1  ARG1        0.1354
     30 NH1        45.4180   -0.5880   27.3660 N.pl3   1  ARG1        0.1354
     31 N          43.2580   -0.1300   32.5380 N.3     1  LYS1       -0.1231
     32 CA         42.7610    0.2680   31.2250 C.3     1  LYS1        0.1678
     33 C          42.4450    1.7540   31.4030 C.2     1  LYS1        0.2434
     34 O          41.6440    2.1270   32.2510 O.2     1  LYS1       -0.2733
     35 CB         41.5100   -0.5210   30.8310 C.3     1  LYS1        0.0284
     36 CG         41.0310   -0.2210   29.4010 C.3     1  LYS1        0.0035
     37 CD         39.8250   -1.0820   28.9780 C.3     1  LYS1        0.0206
     38 CE         39.3560   -0.7570   27.5440 C.3     1  LYS1        0.1093
     39 NZ         38.1850   -1.5740   27.1150 N.3     1  LYS1       -0.1314
     40 N          43.1100    2.6190   30.6270 N.am    2  PRO2       -0.2718
     41 CA         42.9700    4.0830   30.6410 C.3     2  PRO2        0.1535
     42 C          41.5570    4.6640   30.4990 C.2     2  PRO2        0.2598
     43 O          41.2000    5.6090   31.2070 O.2     2  PRO2       -0.2715
     44 CB         43.8600    4.5230   29.4720 C.3     2  PRO2        0.0310
     45 CG         44.8390    3.4130   29.3410 C.3     2  PRO2        0.0237
     46 CD         44.0000    2.1980   29.5340 C.3     2  PRO2        0.0939
     47 N          40.7800    4.1510   29.5450 N.am    3  VAL3       -0.1964
     48 CA         39.4150    4.6500   29.3170 C.3     3  VAL3        0.1727
     49 C          38.5150    3.4820   28.9750 C.2     3  VAL3        0.2616
     50 O          38.9620    2.5180   28.3600 O.2     3  VAL3       -0.2715
     51 CB         39.3270    5.6420   28.1070 C.3     3  VAL3        0.0290
     52 CG2        37.9650    6.3800   28.1240 C.3     3  VAL3        0.0023
     53 CG1        40.4880    6.6450   28.1210 C.3     3  VAL3        0.0023
     54 N          37.2440    3.5800   29.3340 N.am    4  ASN4       -0.1958
     55 CA         36.2990    2.5190   29.0390 C.3     4  ASN4        0.1819
     56 C          34.9250    3.0880   29.1980 C.2     4  ASN4        0.2621
     57 O          34.7190    3.9710   30.0190 O.2     4  ASN4       -0.2715
     58 CB         36.4890    1.3360   29.9920 C.3     4  ASN4        0.1195
     59 CG         35.7100    0.1100   29.5640 C.2     4  ASN4        0.2630
     60 OD1        35.9990   -0.4920   28.5280 O.2     4  ASN4       -0.2716
     61 ND2        34.7250   -0.2780   30.3660 N.am    4  ASN4       -0.0877
     62 N          33.9880    2.6140   28.3900 N.am    5  THR5       -0.1951
     63 CA         32.6240    3.0930   28.4560 C.3     5  THR5        0.1897
     64 C          31.6580    1.9590   28.7690 C.2     5  THR5        0.2313
     65 O          31.7960    0.8570   28.2440 O.2     5  THR5       -0.2863
     66 CB         32.2230    3.7690   27.1100 C.3     5  THR5        0.1794
     67 OG1        33.0980    4.8730   26.8620 O.3     5  THR5       -0.2208
     68 CG2        30.7660    4.2700   27.1390 C.3     5  THR5        0.0378
     69 N          37.1130    3.9570   13.5630 N.3     1  LYS1       -0.1245
     70 CA         38.3170    4.7440   13.7660 C.3     1  LYS1        0.1561
     71 C          39.5170    4.0700   13.1180 C.2     1  LYS1        0.2260
     72 O          40.4700    4.7330   12.7170 O.2     1  LYS1       -0.2867
     73 CB         38.5950    4.9390   15.2630 C.3     1  LYS1        0.0271
     74 CG         37.6530    5.9170   15.9160 C.3     1  LYS1        0.0035
     75 CD         37.8820    6.0370   17.4130 C.3     1  LYS1        0.0206
     76 CE         37.0490    7.1860   17.9650 C.3     1  LYS1        0.1093
     77 NZ         37.1460    7.3030   19.4450 N.3     1  LYS1       -0.1314
     78 N          25.1100    6.2980   28.9670 N.3     1  ILE1       -0.1245
     79 CA         26.4360    5.7270   29.0860 C.3     1  ILE1        0.1561
     80 C          27.2300    6.3480   30.2260 C.2     1  ILE1        0.2260
     81 O          26.9100    7.4280   30.7210 O.2     1  ILE1       -0.2867
     82 CB         27.2690    5.9450   27.7830 C.3     1  ILE1        0.0252
     83 CG1        27.4350    7.4540   27.5150 C.3     1  ILE1        0.0019
     84 CG2        26.5660    5.2690   26.5890 C.3     1  ILE1        0.0019
     85 CD1        28.6790    7.8360   26.7740 C.3     1  ILE1        0.0001
     86 N          31.3470    7.0660   31.0100 N.3     1  ASP1       -0.1227
     87 CA         32.7350    7.0130   30.5850 C.3     1  ASP1        0.1748
     88 C          33.5860    6.9430   31.8290 C.2     1  ASP1        0.2596
     89 O          33.3310    7.6640   32.7910 O.2     1  ASP1       -0.2718
     90 CB         33.1300    8.2640   29.8280 C.3     1  ASP1        0.0701
     91 CG         32.5300    8.3140   28.4690 C.2     1  ASP1        0.0523
     92 OD1        32.8150    7.4080   27.6660 O.co2   1  ASP1       -0.5491
     93 OD2        31.7600    9.2600   28.2130 O.co2   1  ASP1       -0.5491
     94 N          34.5950    6.0870   31.8010 N.am    2  CYS2       -0.1956
     95 CA         35.5150    5.9330   32.9170 C.3     2  CYS2        0.1843
     96 C          36.8790    6.3050   32.3750 C.2     2  CYS2        0.2625
     97 O          37.3470    5.7000   31.4240 O.2     2  CYS2       -0.2714
     98 CB         35.5270    4.4900   33.4090 C.3     2  CYS2        0.0997
     99 SG         33.9410    3.9280   34.0870 S.3     2  CYS2       -0.0797
    100 N          37.5100    7.3050   32.9710 N.am    3  ARG3       -0.1977
    101 CA         38.8100    7.7540   32.5040 C.3     3  ARG3        0.1597
    102 C          39.7460    7.7900   33.6930 C.2     3  ARG3        0.2287
    103 O          39.3950    8.3030   34.7640 O.2     3  ARG3       -0.2864
    104 CB         38.6800    9.1350   31.8600 C.3     3  ARG3        0.0334
    105 CG         39.9420    9.6400   31.1780 C.3     3  ARG3        0.0492
    106 CD         39.6890   10.9140   30.3500 C.3     3  ARG3        0.2205
    107 NE         39.0200   10.6480   29.0690 N.pl3   3  ARG3       -0.0865
    108 CZ         39.6530   10.4090   27.9150 C.cat   3  ARG3        0.5346
    109 NH2        40.9820   10.3990   27.8560 N.pl3   3  ARG3        0.1354
    110 NH1        38.9560   10.1760   26.8060 N.pl3   3  ARG3        0.1354
    111 N          24.5710    9.8180   24.8760 N.3     1  LYS1       -0.1245
    112 CA         25.1180   10.0530   23.5570 C.3     1  LYS1        0.1561
    113 C          24.8200    8.8800   22.6460 C.2     1  LYS1        0.2260
    114 O          24.2930    7.8580   23.0890 O.2     1  LYS1       -0.2867
    115 CB         26.6360   10.2000   23.6580 C.3     1  LYS1        0.0271
    116 CG         27.1250   11.3420   24.5210 C.3     1  LYS1        0.0035
    117 CD         28.6190   11.4700   24.3770 C.3     1  LYS1        0.0206
    118 CE         29.1410   12.7750   24.9680 C.3     1  LYS1        0.1093
    119 NZ         30.5790   12.9930   24.5780 N.3     1  LYS1       -0.1314
    120 N          31.1480   -6.3800   19.0180 N.3     1  VAL1       -0.1231
    121 CA         32.3750   -6.9610   19.5680 C.3     1  VAL1        0.1692
    122 C          33.3800   -5.9040   20.0310 C.2     1  VAL1        0.2592
    123 O          34.3690   -6.2160   20.6980 O.2     1  VAL1       -0.2718
    124 CB         33.0830   -7.9520   18.5630 C.3     1  VAL1        0.0266
    125 CG2        32.1650   -9.1240   18.2320 C.3     1  VAL1        0.0020
    126 CG1        33.5520   -7.2330   17.2830 C.3     1  VAL1        0.0020
    127 N          33.0970   -4.6440   19.7440 N.am    2  HIS2       -0.1962
    128 CA         34.0310   -3.5860   20.0810 C.3     2  HIS2        0.1787
    129 C          33.2920   -2.2670   20.2140 C.2     2  HIS2        0.2620
    130 O          32.3360   -2.0060   19.4810 O.2     2  HIS2       -0.2715
    131 CB         35.1040   -3.5350   18.9730 C.3     2  HIS2        0.0785
    132 CG         35.7490   -2.1970   18.7790 C.ar    2  HIS2        0.0821
    133 ND1        36.8130   -1.7680   19.5420 N.ar    2  HIS2       -0.2267
    134 CD2        35.5090   -1.2050   17.8820 C.ar    2  HIS2        0.1154
    135 CE1        37.2020   -0.5740   19.1310 C.ar    2  HIS2        0.1986
    136 NE2        36.4270   -0.2120   18.1240 N.ar    2  HIS2       -0.2212
    137 N          33.6890   -1.4670   21.1940 N.am    3  PHE3       -0.1960
    138 CA         33.0720   -0.1610   21.3980 C.3     3  PHE3        0.1771
    139 C          34.0280    0.8260   20.7260 C.2     3  PHE3        0.2620
    140 O          35.1900    0.9380   21.1030 O.2     3  PHE3       -0.2715
    141 CB         32.9140    0.1620   22.9030 C.3     3  PHE3        0.0574
    142 CG         32.0800    1.3920   23.1650 C.ar    3  PHE3       -0.0200
    143 CD1        32.6650    2.6590   23.1850 C.ar    3  PHE3       -0.0042
    144 CD2        30.6940    1.2880   23.2900 C.ar    3  PHE3       -0.0042
    145 CE1        31.8780    3.7940   23.3140 C.ar    3  PHE3       -0.0003
    146 CE2        29.9000    2.4220   23.4240 C.ar    3  PHE3       -0.0003
    147 CZ         30.4890    3.6720   23.4330 C.ar    3  PHE3       -0.0000
    148 N          33.5420    1.5410   19.7200 N.am    4  ASP4       -0.1959
    149 CA         34.4090    2.4580   18.9970 C.3     4  ASP4        0.1783
    150 C          34.4250    3.8900   19.5030 C.2     4  ASP4        0.2620
    151 O          35.4910    4.4790   19.6690 O.2     4  ASP4       -0.2715
    152 CB         34.0490    2.4330   17.5050 C.3     4  ASP4        0.0728
    153 CG         35.2180    2.7440   16.6240 C.2     4  ASP4        0.0526
    154 OD2        36.2750    2.1100   16.7750 O.co2   4  ASP4       -0.5491
    155 OD1        35.0800    3.6080   15.7520 O.co2   4  ASP4       -0.5491
    156 N          33.2470    4.4530   19.7430 N.am    5  ALA5       -0.1963
    157 CA         33.1590    5.8370   20.1900 C.3     5  ALA5        0.1728
    158 C          31.7420    6.1930   20.5570 C.2     5  ALA5        0.2617
    159 O          30.8330    5.4100   20.3540 O.2     5  ALA5       -0.2715
    160 CB         33.6170    6.7500   19.0620 C.3     5  ALA5        0.0334
    161 N          31.5640    7.3710   21.1320 N.am    6  SER6       -0.1936
    162 CA         30.2330    7.8670   21.4530 C.3     6  SER6        0.2055
    163 C          30.2620    9.2860   20.9020 C.2     6  SER6        0.2642
    164 O          31.2960    9.9610   20.9780 O.2     6  SER6       -0.2714
    165 CB         29.9580    7.8720   22.9570 C.3     6  SER6        0.2130
    166 OG         30.7890    8.8210   23.5950 O.3     6  SER6       -0.2179
    167 N          29.1430    9.7330   20.3520 N.am    7  VAL7       -0.2000
    168 CA         29.0530   11.0540   19.7470 C.3     7  VAL7        0.1313
    169 C          27.7170   11.7160   20.0660 C.2     7  VAL7        0.0702
    170 OXT        26.7440   11.0050   20.3810 O.co2   7  VAL7       -0.5474
    171 CB         29.2340   10.9810   18.1920 C.3     7  VAL7        0.0254
    172 CG2        30.6060   10.4080   17.8400 C.3     7  VAL7        0.0022
    173 CG1        28.1430   10.1160   17.5550 C.3     7  VAL7        0.0022
    174 O          27.6610   12.9560   19.9920 O.co2   7  VAL7       -0.5474
@<TRIPOS>UNITY_ATOM_ATTR
92 1
charge -1
154 1
charge -1
170 1
charge -1
@<TRIPOS>BOND
     1     1     2    1
     2     2     5    1
     3     2     3    1
     4     3    10   am
     5     3     4    2
     6     5     6    1
     7     6     7    1
     8     7     9   am
     9     7     8    2
    10    10    11    1
    11    11    14    1
    12    11    12    1
    13    12    13    2
    14    14    15    1
    15    15    17   ar
    16    15    16   ar
    17    16    18   ar
    18    17    19   ar
    19    18    19   ar
    20    20    21    1
    21    21    24    1
    22    21    22    1
    23    22    23    2
    24    24    25    1
    25    25    26    1
    26    26    27    1
    27    27    28    2
    28    28    30    1
    29    28    29    1
    30    31    32    1
    31    32    35    1
    32    32    33    1
    33    33    40   am
    34    33    34    2
    35    35    36    1
    36    36    37    1
    37    37    38    1
    38    38    39    1
    39    40    46    1
    40    40    41    1
    41    41    44    1
    42    41    42    1
    43    42    47   am
    44    42    43    2
    45    44    45    1
    46    45    46    1
    47    47    48    1
    48    48    51    1
    49    48    49    1
    50    49    50    2
    51    49    54   am
    52    51    53    1
    53    51    52    1
    54    54    55    1
    55    55    56    1
    56    55    58    1
    57    56    62   am
    58    56    57    2
    59    58    59    1
    60    59    60    2
    61    59    61   am
    62    62    63    1
    63    63    66    1
    64    63    64    1
    65    64    65    2
    66    66    67    1
    67    66    68    1
    68    69    70    1
    69    70    71    1
    70    70    73    1
    71    71    72    2
    72    73    74    1
    73    74    75    1
    74    75    76    1
    75    76    77    1
    76    78    79    1
    77    79    82    1
    78    79    80    1
    79    80    81    2
    80    82    84    1
    81    82    83    1
    82    83    85    1
    83    86    87    1
    84    87    90    1
    85    87    88    1
    86    88    94   am
    87    88    89    2
    88    90    91    1
    89    91    92   ar
    90    91    93   ar
    91    94    95    1
    92    95    96    1
    93    95    98    1
    94    96    97    2
    95    96   100   am
    96    98    99    1
    97   100   101    1
    98   101   104    1
    99   101   102    1
   100   102   103    2
   101   104   105    1
   102   105   106    1
   103   106   107    1
   104   107   108    2
   105   108   110    1
   106   108   109    1
   107   111   112    1
   108   112   113    1
   109   112   115    1
   110   113   114    2
   111   115   116    1
   112   116   117    1
   113   117   118    1
   114   118   119    1
   115   120   121    1
   116   121   124    1
   117   121   122    1
   118   122   127   am
   119   122   123    2
   120   124   126    1
   121   124   125    1
   122   127   128    1
   123   128   131    1
   124   128   129    1
   125   129   130    2
   126   129   137   am
   127   131   132    1
   128   132   134   ar
   129   132   133   ar
   130   133   135   ar
   131   134   136   ar
   132   135   136   ar
   133   137   138    1
   134   138   139    1
   135   138   141    1
   136   139   148   am
   137   139   140    2
   138   141   142    1
   139   142   143   ar
   140   142   144   ar
   141   143   145   ar
   142   144   146   ar
   143   145   147   ar
   144   146   147   ar
   145   148   149    1
   146   149   152    1
   147   149   150    1
   148   150   151    2
   149   150   156   am
   150   152   153    1
   151   153   155   ar
   152   153   154   ar
   153   156   157    1
   154   157   160    1
   155   157   158    1
   156   158   159    2
   157   158   161   am
   158   161   162    1
   159   162   163    1
   160   162   165    1
   161   163   167   am
   162   163   164    2
   163   165   166    1
   164   167   168    1
   165   168   171    1
   166   168   169    1
   167   169   174   ar
   168   169   170   ar
   169   171   173    1
   170   171   172    1
