@<TRIPOS>MOLECULE
./1pdy/ligand.pdb
 9 8 0 0 0
SMALL
GASTEIGER

@<TRIPOS>ATOM
      1  P         31.8840   69.4060   13.7090 P.3     1  PGA1        0.5329
      2  O1P       31.1470   70.2090   12.5440 O.3     1  PGA1       -0.2641
      3  O2P       31.1700   69.8960   14.8920 O.3     1  PGA1       -0.1145
      4  O3P       31.6660   67.9750   13.3100 O.3     1  PGA1       -0.1145
      5  O4P       33.2970   69.8230   13.6570 O.2     1  PGA1       -0.2224
      6  C1        29.2060   70.4510   11.1440 C.2     1  PGA1        0.0807
      7  O1        29.8860   70.0780   10.1620 O.co2   1  PGA1       -0.5466
      8  C2        29.7460   70.1730   12.5240 C.3     1  PGA1        0.1951
      9  O2        28.0760   70.9870   11.0390 O.co2   1  PGA1       -0.5466
@<TRIPOS>UNITY_ATOM_ATTR
7 1
charge -1
@<TRIPOS>BOND
     1     1     2    1
     2     1     3    1
     3     1     4    1
     4     1     5    2
     5     2     8    1
     6     6     7   ar
     7     6     9   ar
     8     6     8    1
