@<TRIPOS>MOLECULE
./1y30/protein.pdb
 196 189 0 0 0
SMALL
GASTEIGER

@<TRIPOS>ATOM
      1 N          16.5660   29.3000   49.4890 N.3     1  ASN1       -0.1225
      2 CA         17.2140   29.0520   48.2230 C.3     1  ASN1        0.1785
      3 C          16.1530   28.9670   47.1330 C.2     1  ASN1        0.2597
      4 O          14.9860   28.6640   47.4030 O.2     1  ASN1       -0.2718
      5 CB         18.1030   27.7860   48.2560 C.3     1  ASN1        0.1169
      6 CG         17.4020   26.5650   48.8210 C.2     1  ASN1        0.2627
      7 OD1        16.1780   26.4790   48.8420 O.2     1  ASN1       -0.2716
      8 ND2        18.1930   25.5960   49.2640 N.am    1  ASN1       -0.0877
      9 N          16.5550   29.2840   45.9070 N.am    2  VAL2       -0.1966
     10 CA         15.6500   29.2470   44.7690 C.3     2  VAL2        0.1727
     11 C          16.3800   28.7840   43.5180 C.2     2  VAL2        0.2616
     12 O          17.5900   28.9550   43.3960 O.2     2  VAL2       -0.2715
     13 CB         15.0730   30.6410   44.4570 C.3     2  VAL2        0.0290
     14 CG2        14.2410   31.1520   45.6370 C.3     2  VAL2        0.0023
     15 CG1        16.2160   31.6040   44.1340 C.3     2  VAL2        0.0023
     16 N          15.6320   28.1950   42.5910 N.am    3  GLN3       -0.1963
     17 CA         16.1910   27.7600   41.3180 C.3     3  GLN3        0.1733
     18 C          15.9700   28.9850   40.4490 C.2     3  GLN3        0.2616
     19 O          14.9940   29.7080   40.6470 O.2     3  GLN3       -0.2715
     20 CB         15.3930   26.5810   40.7600 C.3     3  GLN3        0.0408
     21 CG         16.0930   25.8250   39.6430 C.3     3  GLN3        0.0908
     22 CD         15.3870   24.5200   39.2980 C.2     3  GLN3        0.2608
     23 OE1        15.9760   23.6300   38.6810 O.2     3  GLN3       -0.2717
     24 NE2        14.1220   24.4030   39.6920 N.am    3  GLN3       -0.0878
     25 N          16.8520   29.2370   39.4930 N.am    4  TYR4       -0.1960
     26 CA         16.6650   30.4110   38.6550 C.3     4  TYR4        0.1771
     27 C          17.1750   30.2790   37.2360 C.2     4  TYR4        0.2619
     28 O          17.8670   29.3210   36.8810 O.2     4  TYR4       -0.2715
     29 CB         17.3450   31.6320   39.2910 C.3     4  TYR4        0.0574
     30 CG         18.8590   31.5570   39.3180 C.ar    4  TYR4       -0.0198
     31 CD2        19.5420   31.1920   40.4780 C.ar    4  TYR4       -0.0009
     32 CD1        19.6080   31.8300   38.1790 C.ar    4  TYR4       -0.0009
     33 CE2        20.9300   31.1040   40.4970 C.ar    4  TYR4        0.0417
     34 CE1        20.9930   31.7390   38.1890 C.ar    4  TYR4        0.0417
     35 CZ         21.6450   31.3760   39.3550 C.ar    4  TYR4        0.1957
     36 OH         23.0180   31.2930   39.3680 O.3     4  TYR4       -0.2866
     37 N          16.8140   31.2600   36.4220 N.am    5  HIS5       -0.1973
     38 CA         17.2900   31.3170   35.0630 C.3     5  HIS5        0.1652
     39 C          17.8680   32.7090   34.9040 C.2     5  HIS5        0.2291
     40 O          17.2440   33.6910   35.3030 O.2     5  HIS5       -0.2864
     41 CB         16.1720   31.1030   34.0400 C.3     5  HIS5        0.0731
     42 CG         16.6410   31.2460   32.6260 C.2     5  HIS5        0.0652
     43 ND1        16.3420   32.3460   31.8500 N.2     5  HIS5       -0.2310
     44 CD2        17.4860   30.4860   31.8890 C.3     5  HIS5        0.1683
     45 CE1        16.9860   32.2600   30.7000 C.2     5  HIS5        0.1939
     46 NE2        17.6870   31.1410   30.6990 N.2     5  HIS5       -0.2440
     47 N          15.3540   35.1620   36.5520 N.3     1  GLN1       -0.1231
     48 CA         13.9510   34.7880   36.6620 C.3     1  GLN1        0.1698
     49 C          13.7490   33.5740   37.5480 C.2     1  GLN1        0.2592
     50 O          14.4220   32.5530   37.3770 O.2     1  GLN1       -0.2718
     51 CB         13.3710   34.5130   35.2720 C.3     1  GLN1        0.0381
     52 CG         13.3990   35.7230   34.3420 C.3     1  GLN1        0.0905
     53 CD         13.0150   35.3810   32.9110 C.2     1  GLN1        0.2608
     54 OE1        13.6440   34.5400   32.2710 O.2     1  GLN1       -0.2717
     55 NE2        11.9820   36.0350   32.4030 N.am    1  GLN1       -0.0878
     56 N          12.8220   33.6920   38.5000 N.am    2  VAL2       -0.1966
     57 CA         12.5160   32.5940   39.4090 C.3     2  VAL2        0.1727
     58 C          11.0090   32.4500   39.6230 C.2     2  VAL2        0.2617
     59 O          10.2500   33.4110   39.4910 O.2     2  VAL2       -0.2715
     60 CB         13.1940   32.7820   40.7880 C.3     2  VAL2        0.0290
     61 CG1        14.6430   33.2390   40.6100 C.3     2  VAL2        0.0023
     62 CG2        12.4150   33.7630   41.6270 C.3     2  VAL2        0.0023
     63 N          10.5840   31.2370   39.9480 N.am    3  SER3       -0.1936
     64 CA          9.1780   30.9530   40.1910 C.3     3  SER3        0.2055
     65 C           8.9640   30.8230   41.6940 C.2     3  SER3        0.2643
     66 O           9.7580   30.1740   42.3730 O.2     3  SER3       -0.2714
     67 CB          8.7880   29.6450   39.4890 C.3     3  SER3        0.2130
     68 OG          7.5160   29.1980   39.9120 O.3     3  SER3       -0.2179
     69 N           7.9080   31.4500   42.2150 N.am    4  ILE4       -0.1963
     70 CA          7.6010   31.3820   43.6500 C.3     4  ILE4        0.1727
     71 C           6.1000   31.2550   43.8990 C.2     4  ILE4        0.2616
     72 O           5.3000   31.4140   42.9760 O.2     4  ILE4       -0.2715
     73 CB          8.1210   32.6230   44.3980 C.3     4  ILE4        0.0290
     74 CG1         7.6210   33.8920   43.6970 C.3     4  ILE4        0.0022
     75 CG2         9.6440   32.5710   44.4830 C.3     4  ILE4        0.0023
     76 CD1         8.1310   35.1820   44.2960 C.3     4  ILE4        0.0001
     77 N           5.7230   30.9660   45.1440 N.am    5  ALA5       -0.1977
     78 CA          4.3180   30.8090   45.4930 C.3     5  ALA5        0.1597
     79 C           3.8090   31.9600   46.3660 C.2     5  ALA5        0.2287
     80 O           4.4360   32.3350   47.3600 O.2     5  ALA5       -0.2864
     81 CB          4.1050   29.4740   46.1940 C.3     5  ALA5        0.0319
     82 N           3.9510   31.8270   50.1820 N.3     1  ARG1       -0.1245
     83 CA          5.2760   31.7270   50.7960 C.3     1  ARG1        0.1563
     84 C           5.7460   33.0510   51.3870 C.2     1  ARG1        0.2260
     85 O           5.4290   34.1280   50.8730 O.2     1  ARG1       -0.2867
     86 CB          6.2990   31.2200   49.7740 C.3     1  ARG1        0.0307
     87 CG          5.9980   29.8210   49.2230 C.3     1  ARG1        0.0489
     88 CD          6.3300   28.7220   50.2330 C.3     1  ARG1        0.2205
     89 NE          5.7230   28.9690   51.5390 N.pl3   1  ARG1       -0.0865
     90 CZ          5.9240   28.2200   52.6210 C.cat   1  ARG1        0.5346
     91 NH2         5.3260   28.5320   53.7660 N.pl3   1  ARG1        0.1354
     92 NH1         6.7180   27.1570   52.5640 N.pl3   1  ARG1        0.1354
     93 N           8.7150   34.5860   51.4590 N.3     1  LYS1       -0.1245
     94 CA          9.4950   35.4000   50.5330 C.3     1  LYS1        0.1561
     95 C           8.5780   36.2150   49.6210 C.2     1  LYS1        0.2260
     96 O           8.8650   37.3660   49.3190 O.2     1  LYS1       -0.2867
     97 CB         10.3930   34.5040   49.6710 C.3     1  LYS1        0.0271
     98 CG          9.6390   33.7900   48.5550 C.3     1  LYS1        0.0035
     99 CD         10.5000   32.7800   47.8130 C.3     1  LYS1        0.0206
    100 CE         10.6300   31.4890   48.5920 C.3     1  LYS1        0.1093
    101 NZ         11.3490   30.4850   47.7810 N.3     1  LYS1       -0.1314
    102 N           5.3630   31.5720   32.9840 N.3     1  LEU1       -0.1245
    103 CA          5.8840   30.4620   33.7800 C.3     1  LEU1        0.1561
    104 C           6.2000   29.2650   32.8840 C.2     1  LEU1        0.2260
    105 O           7.1260   28.4970   33.1590 O.2     1  LEU1       -0.2867
    106 CB          4.8830   30.0660   34.8730 C.3     1  LEU1        0.0270
    107 CG          4.8310   31.0190   36.0770 C.3     1  LEU1        0.0019
    108 CD2         3.6720   30.6530   36.9980 C.3     1  LEU1        0.0001
    109 CD1         6.1460   30.9560   36.8320 C.3     1  LEU1        0.0001
    110 N           9.5500   30.0790   31.4530 N.3     1  LEU1       -0.1231
    111 CA         10.6290   29.8920   32.4230 C.3     1  LEU1        0.1693
    112 C          10.9480   28.4060   32.5650 C.2     1  LEU1        0.2592
    113 O          12.1070   28.0040   32.4810 O.2     1  LEU1       -0.2718
    114 CB         10.2350   30.4600   33.7940 C.3     1  LEU1        0.0284
    115 CG         11.2340   30.2300   34.9410 C.3     1  LEU1        0.0019
    116 CD1        12.5190   30.9970   34.6780 C.3     1  LEU1        0.0001
    117 CD2        10.6160   30.6690   36.2640 C.3     1  LEU1        0.0001
    118 N           9.9160   27.5950   32.7800 N.am    2  TYR2       -0.1976
    119 CA         10.0970   26.1530   32.9300 C.3     2  TYR2        0.1639
    120 C          10.9150   25.5910   31.7680 C.2     2  TYR2        0.2290
    121 O          11.7770   24.7360   31.9570 O.2     2  TYR2       -0.2864
    122 CB          8.7320   25.4480   33.0130 C.3     2  TYR2        0.0560
    123 CG          8.8100   23.9390   33.1540 C.ar    2  TYR2       -0.0198
    124 CD1         9.1330   23.1290   32.0610 C.ar    2  TYR2       -0.0009
    125 CD2         8.5850   23.3230   34.3850 C.ar    2  TYR2       -0.0009
    126 CE1         9.2310   21.7440   32.1870 C.ar    2  TYR2        0.0417
    127 CE2         8.6810   21.9350   34.5270 C.ar    2  TYR2        0.0417
    128 CZ          9.0050   21.1540   33.4220 C.ar    2  TYR2        0.1957
    129 OH          9.1040   19.7850   33.5520 O.3     2  TYR2       -0.2866
    130 N          14.4730   26.4000   32.4180 N.3     1  ILE1       -0.1231
    131 CA         15.0620   25.6860   33.5430 C.3     1  ILE1        0.1692
    132 C          15.1610   24.1810   33.2910 C.2     1  ILE1        0.2591
    133 O          16.2570   23.6250   33.2450 O.2     1  ILE1       -0.2718
    134 CB         14.2490   25.9030   34.8460 C.3     1  ILE1        0.0266
    135 CG1        14.0530   27.3960   35.1160 C.3     1  ILE1        0.0019
    136 CG2        14.9890   25.2780   36.0270 C.3     1  ILE1        0.0020
    137 CD1        15.3110   28.1310   35.5230 C.3     1  ILE1        0.0001
    138 N          14.0130   23.5320   33.1100 N.am    2  ALA2       -0.1980
    139 CA         13.9720   22.0850   32.9100 C.3     2  ALA2        0.1597
    140 C          13.8250   21.5660   31.4760 C.2     2  ALA2        0.2287
    141 O          14.1330   20.4040   31.2090 O.2     2  ALA2       -0.2864
    142 CB         12.8700   21.4900   33.7850 C.3     2  ALA2        0.0319
    143 N           8.1800   20.5660   28.9720 N.3     1  HIS1       -0.1241
    144 CA          7.3070   19.8110   29.8680 C.3     1  HIS1        0.1618
    145 C           6.5140   18.7890   29.0630 C.2     1  HIS1        0.2264
    146 O           6.2870   18.9710   27.8670 O.2     1  HIS1       -0.2867
    147 CB          6.3470   20.7510   30.6060 C.3     1  HIS1        0.0704
    148 CG          5.6930   20.1310   31.8050 C.2     1  HIS1        0.0649
    149 ND1         4.9200   18.9920   31.7310 N.2     1  HIS1       -0.2310
    150 CD2         5.6930   20.4980   33.1100 C.3     1  HIS1        0.1683
    151 CE1         4.4730   18.6840   32.9360 C.2     1  HIS1        0.1939
    152 NE2         4.9280   19.5820   33.7910 N.2     1  HIS1       -0.2440
    153 N           0.5720   21.2110   33.8950 N.3     1  TYR1       -0.1241
    154 CA          1.4330   22.2690   34.4030 C.3     1  TYR1        0.1605
    155 C           0.6040   23.5210   34.6650 C.2     1  TYR1        0.2264
    156 O           0.7060   24.1300   35.7310 O.2     1  TYR1       -0.2867
    157 CB          2.5340   22.5870   33.3950 C.3     1  TYR1        0.0534
    158 CG          3.5630   23.5690   33.9090 C.ar    1  TYR1       -0.0201
    159 CD2         4.4530   23.2090   34.9230 C.ar    1  TYR1       -0.0009
    160 CD1         3.6490   24.8620   33.3820 C.ar    1  TYR1       -0.0009
    161 CE2         5.4050   24.1090   35.3980 C.ar    1  TYR1        0.0417
    162 CE1         4.5930   25.7670   33.8520 C.ar    1  TYR1        0.0417
    163 CZ          5.4690   25.3840   34.8580 C.ar    1  TYR1        0.1957
    164 OH          6.4120   26.2700   35.3170 O.3     1  TYR1       -0.2866
    165 N          -1.4390   23.1600   37.7050 N.3     1  ALA1       -0.1231
    166 CA         -0.6030   23.2450   38.8890 C.3     1  ALA1        0.1694
    167 C          -0.2010   24.6850   39.2060 C.2     1  ALA1        0.2591
    168 O          -0.2360   25.0880   40.3640 O.2     1  ALA1       -0.2718
    169 CB          0.6350   22.3830   38.7030 C.3     1  ALA1        0.0304
    170 N           0.1830   25.4610   38.1910 N.am    2  MET2       -0.1979
    171 CA          0.5780   26.8520   38.4280 C.3     2  MET2        0.1605
    172 C          -0.5360   27.6180   39.1260 C.2     2  MET2        0.2287
    173 O          -0.2800   28.4170   40.0390 O.2     2  MET2       -0.2864
    174 CB          0.9340   27.5590   37.1140 C.3     2  MET2        0.0413
    175 CG          2.1880   27.0250   36.4410 C.3     2  MET2        0.0598
    176 SD          3.5820   27.0410   37.5900 S.3     2  MET2       -0.1393
    177 CE          3.4870   25.3650   38.2650 C.3     2  MET2        0.0692
    178 N          -1.1850   26.3380   42.8060 N.3     1  ASP1       -0.1241
    179 CA         -0.1530   26.8210   43.7050 C.3     1  ASP1        0.1616
    180 C           0.0040   28.3290   43.6940 C.2     1  ASP1        0.2264
    181 O           0.9370   28.8480   44.2920 O.2     1  ASP1       -0.2867
    182 CB          1.1960   26.1940   43.3490 C.3     1  ASP1        0.0687
    183 CG          1.6000   25.1130   44.3180 C.2     1  ASP1        0.0522
    184 OD1         1.0070   24.0110   44.2550 O.co2   1  ASP1       -0.5491
    185 OD2         2.5010   25.3810   45.1540 O.co2   1  ASP1       -0.5491
    186 N           1.1970   30.3130   41.6220 N.3     1  ARG1       -0.1245
    187 CA          2.5650   30.5970   41.2230 C.3     1  ARG1        0.1563
    188 C           2.7360   31.9980   40.6470 C.2     1  ARG1        0.2260
    189 O           1.8770   32.5120   39.9240 O.2     1  ARG1       -0.2867
    190 CB          3.0390   29.5500   40.2110 C.3     1  ARG1        0.0307
    191 CG          3.4800   28.2310   40.8510 C.3     1  ARG1        0.0489
    192 CD          4.8240   28.4000   41.5480 C.3     1  ARG1        0.2205
    193 NE          5.2030   27.2400   42.3450 N.pl3   1  ARG1       -0.0865
    194 CZ          6.3700   27.1170   42.9740 C.cat   1  ARG1        0.5346
    195 NH1         7.2760   28.0830   42.8950 N.pl3   1  ARG1        0.1354
    196 NH2         6.6290   26.0330   43.6930 N.pl3   1  ARG1        0.1354
@<TRIPOS>UNITY_ATOM_ATTR
184 1
charge -1
@<TRIPOS>BOND
     1     1     2    1
     2     2     3    1
     3     2     5    1
     4     3     9   am
     5     3     4    2
     6     5     6    1
     7     6     7    2
     8     6     8   am
     9     9    10    1
    10    10    11    1
    11    10    13    1
    12    11    16   am
    13    11    12    2
    14    13    15    1
    15    13    14    1
    16    16    17    1
    17    17    18    1
    18    17    20    1
    19    18    25   am
    20    18    19    2
    21    20    21    1
    22    21    22    1
    23    22    23    2
    24    22    24   am
    25    25    26    1
    26    26    27    1
    27    26    29    1
    28    27    37   am
    29    27    28    2
    30    29    30    1
    31    30    32   ar
    32    30    31   ar
    33    31    33   ar
    34    32    34   ar
    35    33    35   ar
    36    34    35   ar
    37    35    36    1
    38    37    38    1
    39    38    41    1
    40    38    39    1
    41    39    40    2
    42    41    42    1
    43    42    43    2
    44    42    44    1
    45    43    45    1
    46    44    46    1
    47    45    46    2
    48    47    48    1
    49    48    51    1
    50    48    49    1
    51    49    50    2
    52    49    56   am
    53    51    52    1
    54    52    53    1
    55    53    54    2
    56    53    55   am
    57    56    57    1
    58    57    58    1
    59    57    60    1
    60    58    59    2
    61    58    63   am
    62    60    61    1
    63    60    62    1
    64    63    64    1
    65    64    67    1
    66    64    65    1
    67    65    69   am
    68    65    66    2
    69    67    68    1
    70    69    70    1
    71    70    71    1
    72    70    73    1
    73    71    72    2
    74    71    77   am
    75    73    74    1
    76    73    75    1
    77    74    76    1
    78    77    78    1
    79    78    81    1
    80    78    79    1
    81    79    80    2
    82    82    83    1
    83    83    86    1
    84    83    84    1
    85    84    85    2
    86    86    87    1
    87    87    88    1
    88    88    89    1
    89    89    90    2
    90    90    92    1
    91    90    91    1
    92    93    94    1
    93    94    95    1
    94    94    97    1
    95    95    96    2
    96    97    98    1
    97    98    99    1
    98    99   100    1
    99   100   101    1
   100   102   103    1
   101   103   104    1
   102   103   106    1
   103   104   105    2
   104   106   107    1
   105   107   109    1
   106   107   108    1
   107   110   111    1
   108   111   112    1
   109   111   114    1
   110   112   113    2
   111   112   118   am
   112   114   115    1
   113   115   116    1
   114   115   117    1
   115   118   119    1
   116   119   120    1
   117   119   122    1
   118   120   121    2
   119   122   123    1
   120   123   124   ar
   121   123   125   ar
   122   124   126   ar
   123   125   127   ar
   124   126   128   ar
   125   127   128   ar
   126   128   129    1
   127   130   131    1
   128   131   132    1
   129   131   134    1
   130   132   138   am
   131   132   133    2
   132   134   135    1
   133   134   136    1
   134   135   137    1
   135   138   139    1
   136   139   140    1
   137   139   142    1
   138   140   141    2
   139   143   144    1
   140   144   145    1
   141   144   147    1
   142   145   146    2
   143   147   148    1
   144   148   149    2
   145   148   150    1
   146   149   151    1
   147   150   152    1
   148   151   152    2
   149   153   154    1
   150   154   157    1
   151   154   155    1
   152   155   156    2
   153   157   158    1
   154   158   160   ar
   155   158   159   ar
   156   159   161   ar
   157   160   162   ar
   158   161   163   ar
   159   162   163   ar
   160   163   164    1
   161   165   166    1
   162   166   169    1
   163   166   167    1
   164   167   170   am
   165   167   168    2
   166   170   171    1
   167   171   174    1
   168   171   172    1
   169   172   173    2
   170   174   175    1
   171   175   176    1
   172   176   177    1
   173   178   179    1
   174   179   182    1
   175   179   180    1
   176   180   181    2
   177   182   183    1
   178   183   184   ar
   179   183   185   ar
   180   186   187    1
   181   187   190    1
   182   187   188    1
   183   188   189    2
   184   190   191    1
   185   191   192    1
   186   192   193    1
   187   193   194    2
   188   194   195    1
   189   194   196    1
