@<TRIPOS>MOLECULE
./1y30/protein.pdb
 142 138 0 0 0
SMALL
GASTEIGER

@<TRIPOS>ATOM
      1 N          20.7710   31.8880   46.8030 N.3     1  VAL1       -0.1231
      2 CA         20.1040   32.2340   48.0480 C.3     1  VAL1        0.1692
      3 C          19.3930   33.5640   47.8970 C.2     1  VAL1        0.2592
      4 O          20.0280   34.6070   47.7580 O.2     1  VAL1       -0.2718
      5 CB         21.1100   32.3200   49.2210 C.3     1  VAL1        0.0266
      6 CG2        20.4550   32.9680   50.4290 C.3     1  VAL1        0.0020
      7 CG1        21.6030   30.9300   49.5780 C.3     1  VAL1        0.0020
      8 N          18.0680   33.5120   47.9080 N.am    2  LEU2       -0.1966
      9 CA         17.2520   34.7060   47.7860 C.3     2  LEU2        0.1728
     10 C          17.0500   35.3310   49.1610 C.2     2  LEU2        0.2616
     11 O          16.6570   34.6500   50.1180 O.2     2  LEU2       -0.2715
     12 CB         15.8860   34.3610   47.1900 C.3     2  LEU2        0.0311
     13 CG         14.8440   35.4830   47.1610 C.3     2  LEU2        0.0022
     14 CD1        15.2870   36.5890   46.2260 C.3     2  LEU2        0.0001
     15 CD2        13.5040   34.9150   46.7050 C.3     2  LEU2        0.0001
     16 N          17.3160   36.6290   49.2570 N.am    3  ALA3       -0.1963
     17 CA         17.1390   37.3300   50.5170 C.3     3  ALA3        0.1728
     18 C          16.0800   38.4160   50.3590 C.2     3  ALA3        0.2617
     19 O          16.2240   39.3280   49.5390 O.2     3  ALA3       -0.2715
     20 CB         18.4670   37.9410   50.9760 C.3     3  ALA3        0.0334
     21 N          14.9970   38.2960   51.1230 N.am    4  THR4       -0.1937
     22 CA         13.9330   39.2890   51.0820 C.3     4  THR4        0.2028
     23 C          13.9410   40.0390   52.4090 C.2     4  THR4        0.2642
     24 O          14.7030   39.7020   53.3220 O.2     4  THR4       -0.2714
     25 CB         12.5440   38.6420   50.8510 C.3     4  THR4        0.1808
     26 OG1        12.2220   37.7780   51.9460 O.3     4  THR4       -0.2208
     27 CG2        12.5470   37.8290   49.5570 C.3     4  THR4        0.0379
     28 N          13.1030   41.0620   52.5140 N.am    5  ILE5       -0.1977
     29 CA         13.0460   41.8610   53.7230 C.3     5  ILE5        0.1596
     30 C          11.7250   41.6550   54.4520 C.2     5  ILE5        0.2287
     31 O          10.6590   41.9670   53.9210 O.2     5  ILE5       -0.2864
     32 CB         13.2250   43.3560   53.3770 C.3     5  ILE5        0.0276
     33 CG1        14.5240   43.5420   52.5840 C.3     5  ILE5        0.0022
     34 CG2        13.2270   44.1930   54.6520 C.3     5  ILE5        0.0022
     35 CD1        14.7380   44.9510   52.0570 C.3     5  ILE5        0.0001
     36 N          16.3710   40.4660   57.4960 N.3     1  PRO1       -0.2102
     37 CA         16.4880   39.6790   56.2650 C.3     1  PRO1        0.1504
     38 C          15.8140   38.3170   56.4460 C.2     1  PRO1        0.2576
     39 O          15.7630   37.7810   57.5570 O.2     1  PRO1       -0.2718
     40 CB         18.0020   39.5260   56.0820 C.3     1  PRO1        0.0282
     41 CG         18.5630   40.7270   56.7730 C.3     1  PRO1        0.0208
     42 CD         17.7020   40.8230   58.0150 C.3     1  PRO1        0.0893
     43 N          15.2910   37.7770   55.3520 N.am    2  GLN2       -0.1966
     44 CA         14.6550   36.4640   55.3530 C.3     2  GLN2        0.1733
     45 C          15.3840   35.7010   54.2510 C.2     2  GLN2        0.2616
     46 O          15.5590   36.2240   53.1470 O.2     2  GLN2       -0.2715
     47 CB         13.1610   36.6020   55.0470 C.3     2  GLN2        0.0408
     48 CG         12.3750   35.3090   55.1630 C.3     2  GLN2        0.0908
     49 CD         12.3070   34.5420   53.8560 C.2     2  GLN2        0.2608
     50 OE1        11.8890   33.3850   53.8290 O.2     2  GLN2       -0.2717
     51 NE2        12.7020   35.1880   52.7600 N.am    2  GLN2       -0.0878
     52 N          15.8110   34.4730   54.5390 N.am    3  LEU3       -0.1977
     53 CA         16.5750   33.6950   53.5620 C.3     3  LEU3        0.1596
     54 C          16.0000   32.3530   53.1210 C.2     3  LEU3        0.2287
     55 O          15.3650   31.6380   53.8940 O.2     3  LEU3       -0.2864
     56 CB         17.9860   33.4470   54.0980 C.3     3  LEU3        0.0297
     57 CG         18.7780   34.6440   54.6180 C.3     3  LEU3        0.0022
     58 CD2        20.0310   34.1310   55.3330 C.3     3  LEU3        0.0001
     59 CD1        19.1380   35.5820   53.4630 C.3     3  LEU3        0.0001
     60 N           7.7300   44.9150   50.0480 N.3     1  ASP1       -0.1241
     61 CA          9.0320   45.4950   49.7430 C.3     1  ASP1        0.1616
     62 C           9.7070   44.6130   48.7000 C.2     1  ASP1        0.2264
     63 O          10.1900   43.5280   49.0170 O.2     1  ASP1       -0.2867
     64 CB          9.8710   45.5530   51.0220 C.3     1  ASP1        0.0687
     65 CG         11.1760   46.2800   50.8280 C.2     1  ASP1        0.0522
     66 OD2        11.7370   46.7510   51.8340 O.co2   1  ASP1       -0.5491
     67 OD1        11.6440   46.3770   49.6750 O.co2   1  ASP1       -0.5491
     68 N          12.5680   44.9500   47.1250 N.3     1  ARG1       -0.1231
     69 CA         14.0200   44.9220   47.0540 C.3     1  ARG1        0.1694
     70 C          14.4890   43.5050   47.3510 C.2     1  ARG1        0.2592
     71 O          14.0370   42.8750   48.3060 O.2     1  ARG1       -0.2718
     72 CB         14.6040   45.9390   48.0250 C.3     1  ARG1        0.0321
     73 CG         14.1750   47.3640   47.6750 C.3     1  ARG1        0.0489
     74 CD         14.6060   48.3500   48.7290 C.3     1  ARG1        0.2205
     75 NE         14.0460   47.9990   50.0280 N.pl3   1  ARG1       -0.0865
     76 CZ         14.4240   48.5510   51.1740 C.cat   1  ARG1        0.5346
     77 NH1        15.3670   49.4850   51.1790 N.pl3   1  ARG1        0.1354
     78 NH2        13.8700   48.1570   52.3120 N.pl3   1  ARG1        0.1354
     79 N          15.3790   42.9960   46.5070 N.am    2  ALA2       -0.1966
     80 CA         15.8590   41.6360   46.6700 C.3     2  ALA2        0.1728
     81 C          17.3020   41.4440   46.2240 C.2     2  ALA2        0.2617
     82 O          17.8160   42.1690   45.3670 O.2     2  ALA2       -0.2715
     83 CB         14.9460   40.6780   45.8940 C.3     2  ALA2        0.0334
     84 N          17.9390   40.4450   46.8180 N.am    3  SER3       -0.1936
     85 CA         19.3170   40.1030   46.5120 C.3     3  SER3        0.2055
     86 C          19.4100   38.5910   46.3720 C.2     3  SER3        0.2643
     87 O          18.6250   37.8530   46.9830 O.2     3  SER3       -0.2714
     88 CB         20.2420   40.5600   47.6420 C.3     3  SER3        0.2130
     89 OG         20.2280   41.9670   47.7830 O.3     3  SER3       -0.2179
     90 N          20.3620   38.1320   45.5670 N.am    4  ILE4       -0.1963
     91 CA         20.5520   36.7060   45.3770 C.3     4  ILE4        0.1727
     92 C          22.0270   36.3640   45.3280 C.2     4  ILE4        0.2616
     93 O          22.7560   36.8620   44.4840 O.2     4  ILE4       -0.2715
     94 CB         19.8750   36.2080   44.0800 C.3     4  ILE4        0.0290
     95 CG1        18.3550   36.3410   44.2110 C.3     4  ILE4        0.0022
     96 CG2        20.2350   34.7420   43.8280 C.3     4  ILE4        0.0023
     97 CD1        17.5970   36.0260   42.9290 C.3     4  ILE4        0.0001
     98 N          22.4710   35.5250   46.2570 N.am    5  LEU5       -0.1977
     99 CA         23.8650   35.1140   46.2670 C.3     5  LEU5        0.1596
    100 C          23.9850   33.7900   45.5130 C.2     5  LEU5        0.2287
    101 O          23.1840   32.8810   45.7000 O.2     5  LEU5       -0.2864
    102 CB         24.3830   34.9600   47.7050 C.3     5  LEU5        0.0297
    103 CG         25.8660   34.5830   47.8420 C.3     5  LEU5        0.0022
    104 CD2        26.3500   34.8640   49.2670 C.3     5  LEU5        0.0001
    105 CD1        26.0630   33.1220   47.4800 C.3     5  LEU5        0.0001
    106 N          26.7520   38.3870   44.1110 N.3     1  VAL1       -0.1231
    107 CA         25.4420   38.7230   44.6360 C.3     1  VAL1        0.1692
    108 C          24.7540   39.7440   43.7420 C.2     1  VAL1        0.2592
    109 O          25.2960   40.8200   43.4890 O.2     1  VAL1       -0.2718
    110 CB         25.5400   39.3340   46.0510 C.3     1  VAL1        0.0266
    111 CG1        24.1530   39.4890   46.6410 C.3     1  VAL1        0.0020
    112 CG2        26.4130   38.4660   46.9370 C.3     1  VAL1        0.0020
    113 N          23.5610   39.4130   43.2610 N.am    2  ALA2       -0.1966
    114 CA         22.8270   40.3530   42.4220 C.3     2  ALA2        0.1728
    115 C          21.8480   41.0840   43.3280 C.2     2  ALA2        0.2616
    116 O          21.1980   40.4800   44.1790 O.2     2  ALA2       -0.2715
    117 CB         22.0830   39.6300   41.3080 C.3     2  ALA2        0.0334
    118 N          21.7610   42.3900   43.1440 N.am    3  GLU3       -0.1963
    119 CA         20.8840   43.2150   43.9480 C.3     3  GLU3        0.1731
    120 C          19.9970   43.9810   42.9750 C.2     3  GLU3        0.2616
    121 O          20.4620   44.4500   41.9450 O.2     3  GLU3       -0.2715
    122 CB         21.7360   44.1740   44.7740 C.3     3  GLU3        0.0370
    123 CG         21.0920   44.6970   46.0220 C.3     3  GLU3        0.0440
    124 CD         22.0760   45.4800   46.8710 C.2     3  GLU3        0.0504
    125 OE1        22.4180   46.6140   46.4860 O.co2   3  GLU3       -0.5492
    126 OE2        22.5170   44.9520   47.9140 O.co2   3  GLU3       -0.5492
    127 N          18.7140   44.0860   43.2850 N.am    4  GLY4       -0.1955
    128 CA         17.8250   44.8080   42.3990 C.3     4  GLY4        0.1869
    129 C          16.4550   44.9430   43.0110 C.2     4  GLY4        0.2309
    130 O          16.2770   44.6830   44.1950 O.2     4  GLY4       -0.2863
    131 N          27.9390   42.5520   43.4850 N.3     1  TYR1       -0.1241
    132 CA         29.1150   42.5970   44.3400 C.3     1  TYR1        0.1605
    133 C          29.4680   41.1750   44.7580 C.2     1  TYR1        0.2264
    134 O          28.6520   40.2580   44.6160 O.2     1  TYR1       -0.2867
    135 CB         28.8770   43.4720   45.5890 C.3     1  TYR1        0.0534
    136 CG         27.7730   43.0120   46.5230 C.ar    1  TYR1       -0.0201
    137 CD1        26.4430   43.3640   46.2960 C.ar    1  TYR1       -0.0009
    138 CD2        28.0620   42.2310   47.6440 C.ar    1  TYR1       -0.0009
    139 CE1        25.4220   42.9510   47.1660 C.ar    1  TYR1        0.0417
    140 CE2        27.0500   41.8130   48.5180 C.ar    1  TYR1        0.0417
    141 CZ         25.7380   42.1760   48.2710 C.ar    1  TYR1        0.1957
    142 OH         24.7450   41.7590   49.1230 O.3     1  TYR1       -0.2866
@<TRIPOS>UNITY_ATOM_ATTR
66 1
charge -1
125 1
charge -1
@<TRIPOS>BOND
     1     1     2    1
     2     2     3    1
     3     2     5    1
     4     3     4    2
     5     3     8   am
     6     5     7    1
     7     5     6    1
     8     8     9    1
     9     9    12    1
    10     9    10    1
    11    10    16   am
    12    10    11    2
    13    12    13    1
    14    13    14    1
    15    13    15    1
    16    16    17    1
    17    17    18    1
    18    17    20    1
    19    18    19    2
    20    18    21   am
    21    21    22    1
    22    22    25    1
    23    22    23    1
    24    23    28   am
    25    23    24    2
    26    25    27    1
    27    25    26    1
    28    28    29    1
    29    29    32    1
    30    29    30    1
    31    30    31    2
    32    32    33    1
    33    32    34    1
    34    33    35    1
    35    36    37    1
    36    36    42    1
    37    37    40    1
    38    37    38    1
    39    38    43   am
    40    38    39    2
    41    40    41    1
    42    41    42    1
    43    43    44    1
    44    44    45    1
    45    44    47    1
    46    45    46    2
    47    45    52   am
    48    47    48    1
    49    48    49    1
    50    49    51   am
    51    49    50    2
    52    52    53    1
    53    53    54    1
    54    53    56    1
    55    54    55    2
    56    56    57    1
    57    57    59    1
    58    57    58    1
    59    60    61    1
    60    61    62    1
    61    61    64    1
    62    62    63    2
    63    64    65    1
    64    65    67   ar
    65    65    66   ar
    66    68    69    1
    67    69    70    1
    68    69    72    1
    69    70    79   am
    70    70    71    2
    71    72    73    1
    72    73    74    1
    73    74    75    1
    74    75    76    2
    75    76    77    1
    76    76    78    1
    77    79    80    1
    78    80    83    1
    79    80    81    1
    80    81    82    2
    81    81    84   am
    82    84    85    1
    83    85    86    1
    84    85    88    1
    85    86    90   am
    86    86    87    2
    87    88    89    1
    88    90    91    1
    89    91    94    1
    90    91    92    1
    91    92    93    2
    92    92    98   am
    93    94    96    1
    94    94    95    1
    95    95    97    1
    96    98    99    1
    97    99   100    1
    98    99   102    1
    99   100   101    2
   100   102   103    1
   101   103   105    1
   102   103   104    1
   103   106   107    1
   104   107   108    1
   105   107   110    1
   106   108   113   am
   107   108   109    2
   108   110   111    1
   109   110   112    1
   110   113   114    1
   111   114   117    1
   112   114   115    1
   113   115   118   am
   114   115   116    2
   115   118   119    1
   116   119   120    1
   117   119   122    1
   118   120   121    2
   119   120   127   am
   120   122   123    1
   121   123   124    1
   122   124   125   ar
   123   124   126   ar
   124   127   128    1
   125   128   129    1
   126   129   130    2
   127   131   132    1
   128   132   133    1
   129   132   135    1
   130   133   134    2
   131   135   136    1
   132   136   137   ar
   133   136   138   ar
   134   137   139   ar
   135   138   140   ar
   136   139   141   ar
   137   140   141   ar
   138   141   142    1
