@<TRIPOS>MOLECULE
./1gcg/ligand.pdb
 24 24 0 0 0
SMALL
GASTEIGER

@<TRIPOS>ATOM
      1  C1        82.5060   28.9040   85.2000 C.3     1  GAL1        0.1854
      2  O1        82.3000   28.6130   83.8690 O.3     1  GAL1       -0.3649
      3  C2        81.6930   27.9420   86.0690 C.3     1  GAL1        0.1339
      4  O2        80.3100   28.0700   85.7670 O.3     1  GAL1       -0.3841
      5  C3        81.9450   28.2770   87.5230 C.3     1  GAL1        0.1141
      6  O3        81.2830   27.3400   88.2950 O.3     1  GAL1       -0.3864
      7  C4        83.4670   28.2860   87.8830 C.3     1  GAL1        0.1119
      8  O4        83.9180   26.9610   87.8120 O.3     1  GAL1       -0.3865
      9  C5        84.2570   29.1710   86.8750 C.3     1  GAL1        0.1130
     10  O5        83.8940   28.7880   85.5160 O.3     1  GAL1       -0.3407
     11  C6        85.7920   29.0160   87.0290 C.3     1  GAL1        0.0730
     12  O6        86.4570   29.9630   86.2050 O.3     1  GAL1       -0.3924
     13  HO1       82.8210   29.2040   83.3370 H       1  GAL1        0.2126
     14  HO2       79.8730   27.1750   85.6220 H       1  GAL1        0.2101
     15  HO3       80.3740   27.2890   88.0070 H       1  GAL1        0.2100
     16  HO4       84.8470   26.9470   88.0300 H       1  GAL1        0.2100
     17  HO6       87.0250   29.5250   85.5910 H       1  GAL1        0.2095
     18  H1        82.1750   29.9430   85.3740 H       1  GAL1        0.0935
     19  H2        82.0180   26.9060   85.8630 H       1  GAL1        0.0671
     20  H3        81.5160   29.2650   87.7270 H       1  GAL1        0.0648
     21  H4        83.5940   28.6790   88.9040 H       1  GAL1        0.0647
     22  H5        83.9900   30.2250   87.0330 H       1  GAL1        0.0647
     23  H61       86.1160   28.0010   86.7780 H       1  GAL1        0.0584
     24  H62       86.0520   29.2120   88.0760 H       1  GAL1        0.0584
@<TRIPOS>BOND
     1     1     2    1
     2     1     3    1
     3     1    10    1
     4     1    18    1
     5     2    13    1
     6     3     4    1
     7     3     5    1
     8     3    19    1
     9     4    14    1
    10     5     6    1
    11     5     7    1
    12     5    20    1
    13     6    15    1
    14     7     8    1
    15     7     9    1
    16     7    21    1
    17     8    16    1
    18     9    10    1
    19     9    11    1
    20     9    22    1
    21    11    12    1
    22    11    23    1
    23    11    24    1
    24    12    17    1
