@<TRIPOS>MOLECULE
./1vcu/protein.pdb
 292 278 0 0 0
SMALL
GASTEIGER

@<TRIPOS>ATOM
      1 N           2.9530    2.1910   15.0280 N.3     1  ARG1       -0.1231
      2 CA          4.2160    1.7920   14.4260 C.3     1  ARG1        0.1694
      3 C           5.3460    2.1620   15.3590 C.2     1  ARG1        0.2591
      4 O           5.1160    2.7590   16.4120 O.2     1  ARG1       -0.2718
      5 CB          4.4560    2.5090   13.1020 C.3     1  ARG1        0.0321
      6 CG          3.6430    2.0080   11.9280 C.3     1  ARG1        0.0489
      7 CD          4.3370    2.4030   10.6490 C.3     1  ARG1        0.2205
      8 NE          5.7140    1.9270   10.6790 N.pl3   1  ARG1       -0.0865
      9 CZ          6.6760    2.3360    9.8610 C.cat   1  ARG1        0.5346
     10 NH2         7.8950    1.8400    9.9760 N.pl3   1  ARG1        0.1354
     11 NH1         6.4240    3.2440    8.9340 N.pl3   1  ARG1        0.1354
     12 N           6.5630    1.7830   14.9630 N.am    2  ILE2       -0.1980
     13 CA          7.7900    2.1030   15.6900 C.3     2  ILE2        0.1595
     14 C           7.8240    1.6600   17.1480 C.2     2  ILE2        0.2287
     15 O           7.6830    2.4740   18.0590 O.2     2  ILE2       -0.2864
     16 CB          8.0620    3.6330   15.6320 C.3     2  ILE2        0.0276
     17 CG1         7.7670    4.1720   14.2240 C.3     2  ILE2        0.0022
     18 CG2         9.4970    3.9210   15.9960 C.3     2  ILE2        0.0022
     19 CD1         8.4040    3.3930   13.0940 C.3     2  ILE2        0.0001
     20 N           4.3880    4.3010   18.6660 N.3     1  GLU1       -0.1245
     21 CA          3.7940    5.5460   18.1760 C.3     1  GLU1        0.1565
     22 C           2.3170    5.3710   17.8310 C.2     1  GLU1        0.2260
     23 O           1.9550    4.4860   17.0600 O.2     1  GLU1       -0.2867
     24 CB          4.5220    6.0270   16.9150 C.3     1  GLU1        0.0329
     25 CG          5.7860    6.8240   17.1620 C.3     1  GLU1        0.0437
     26 CD          6.5410    7.1330   15.8820 C.2     1  GLU1        0.0504
     27 OE1         5.9060    7.5640   14.8980 O.co2   1  GLU1       -0.5492
     28 OE2         7.7750    6.9560   15.8620 O.co2   1  GLU1       -0.5492
     29 N          -0.2150    6.7260   15.7230 N.3     1  ARG1       -0.1245
     30 CA         -0.4170    7.6560   14.6130 C.3     1  ARG1        0.1563
     31 C          -1.8700    7.6940   14.1160 C.2     1  ARG1        0.2260
     32 O          -2.5690    6.6840   14.1450 O.2     1  ARG1       -0.2867
     33 CB          0.5550    7.3100   13.4630 C.3     1  ARG1        0.0307
     34 CG          1.7110    6.4180   13.9050 C.3     1  ARG1        0.0489
     35 CD          3.0890    6.8840   13.4720 C.3     1  ARG1        0.2205
     36 NE          3.4540    6.4090   12.1370 N.pl3   1  ARG1       -0.0865
     37 CZ          4.7030    6.3350   11.6700 C.cat   1  ARG1        0.5346
     38 NH2         5.7360    6.6960   12.4210 N.pl3   1  ARG1        0.1354
     39 NH1         4.9200    5.9040   10.4380 N.pl3   1  ARG1        0.1354
     40 N           4.1720    8.5550    8.5010 N.3     1  ASP1       -0.1227
     41 CA          5.0430    9.1880    9.4790 C.3     1  ASP1        0.1748
     42 C           4.5670   10.5520    9.9850 C.2     1  ASP1        0.2595
     43 O           4.5300   10.7900   11.1910 O.2     1  ASP1       -0.2718
     44 CB          6.4520    9.3150    8.8980 C.3     1  ASP1        0.0701
     45 CG          7.0560    7.9750    8.5430 C.2     1  ASP1        0.0523
     46 OD2         6.7710    6.9940    9.2540 O.co2   1  ASP1       -0.5491
     47 OD1         7.8290    7.9000    7.5660 O.co2   1  ASP1       -0.5491
     48 N           4.2070   11.4420    9.0650 N.am    2  GLU2       -0.1979
     49 CA          3.7490   12.7780    9.4310 C.3     2  GLU2        0.1600
     50 C           2.4610   12.7590   10.2360 C.2     2  GLU2        0.2287
     51 O           2.0440   13.7850   10.7790 O.2     2  GLU2       -0.2864
     52 CB          3.5340   13.6250    8.1800 C.3     2  GLU2        0.0356
     53 CG          2.6180   12.9880    7.1550 C.3     2  GLU2        0.0439
     54 CD          3.3640   12.5640    5.9080 C.2     2  GLU2        0.0504
     55 OE2         4.4190   11.8930    6.0320 O.co2   2  GLU2       -0.5492
     56 OE1         2.8860   12.9040    4.8020 O.co2   2  GLU2       -0.5492
     57 N           4.2070   16.8850   17.5840 N.3     1  ARG1       -0.1245
     58 CA          3.8250   15.4860   17.6100 C.3     1  ARG1        0.1563
     59 C           5.0010   14.7610   18.2480 C.2     1  ARG1        0.2260
     60 O           6.0830   15.3310   18.3770 O.2     1  ARG1       -0.2867
     61 CB          3.5850   14.9610   16.1920 C.3     1  ARG1        0.0307
     62 CG          4.8120   14.9310   15.3020 C.3     1  ARG1        0.0489
     63 CD          4.7050   13.7640   14.3120 C.3     1  ARG1        0.2205
     64 NE          4.5150   14.1690   12.9200 N.pl3   1  ARG1       -0.0865
     65 CZ          5.4730   14.6630   12.1470 C.cat   1  ARG1        0.5346
     66 NH1         5.2140   15.0030   10.8960 N.pl3   1  ARG1        0.1354
     67 NH2         6.6950   14.8150   12.6210 N.pl3   1  ARG1        0.1354
     68 N           7.4290   11.1540   18.3190 N.3     1  MET1       -0.1230
     69 CA          7.8180    9.9350   17.6280 C.3     1  MET1        0.1702
     70 C           9.2270    9.4840   17.9980 C.2     1  MET1        0.2592
     71 O           9.9910   10.2460   18.5970 O.2     1  MET1       -0.2718
     72 CB          7.6620   10.0930   16.1050 C.3     1  MET1        0.0401
     73 CG          8.3390   11.2810   15.4500 C.3     1  MET1        0.0596
     74 SD          7.6380   11.5860   13.7790 S.3     1  MET1       -0.1393
     75 CE          7.7950   10.0000   13.0040 C.3     1  MET1        0.0692
     76 N           9.5480    8.2340   17.6720 N.am    2  ASN2       -0.1974
     77 CA         10.8570    7.6620   17.9730 C.3     2  ASN2        0.1688
     78 C          11.1150    7.4770   19.4610 C.2     2  ASN2        0.2292
     79 O          12.0490    8.0560   20.0150 O.2     2  ASN2       -0.2864
     80 CB         11.9690    8.5240   17.3860 C.3     2  ASN2        0.1181
     81 CG         12.1060    8.3470   15.9050 C.2     2  ASN2        0.2629
     82 OD1        13.2110    7.7540   15.4880 O.2     2  ASN2       -0.2716
     83 ND2        11.2270    8.7280   15.1360 N.am    2  ASN2       -0.0877
     84 N          11.2250   12.3290   19.9200 N.3     1  ILE1       -0.1245
     85 CA         11.3230   13.4170   18.9640 C.3     1  ILE1        0.1561
     86 C          10.0020   14.1710   18.9200 C.2     1  ILE1        0.2260
     87 O           8.9370   13.5730   19.0710 O.2     1  ILE1       -0.2867
     88 CB         11.6960   12.8550   17.5610 C.3     1  ILE1        0.0252
     89 CG1        13.1880   12.5470   17.5270 C.3     1  ILE1        0.0019
     90 CG2        11.3440   13.8250   16.4680 C.3     1  ILE1        0.0019
     91 CD1        14.0400   13.7030   17.9850 C.3     1  ILE1        0.0001
     92 N           8.1360   16.9450   16.4600 N.3     1  ILE1       -0.1245
     93 CA          8.1340   17.6830   15.2030 C.3     1  ILE1        0.1561
     94 C           6.8090   18.4390   15.0420 C.2     1  ILE1        0.2260
     95 O           5.7310   17.8540   15.1580 O.2     1  ILE1       -0.2867
     96 CB          8.3520   16.7170   14.0130 C.3     1  ILE1        0.0252
     97 CG1         9.5980   15.8640   14.2760 C.3     1  ILE1        0.0019
     98 CG2         8.4970   17.5040   12.7120 C.3     1  ILE1        0.0019
     99 CD1         9.7950   14.7070   13.3160 C.3     1  ILE1        0.0001
    100 N           4.4060   18.7540    9.8340 N.3     1  VAL1       -0.1231
    101 CA          5.5440   19.1210    9.0040 C.3     1  VAL1        0.1692
    102 C           6.2990   17.8240    8.7700 C.2     1  VAL1        0.2593
    103 O           6.7710   17.1980    9.7190 O.2     1  VAL1       -0.2718
    104 CB          6.4560   20.1330    9.7280 C.3     1  VAL1        0.0266
    105 CG1         7.7200   20.3890    8.9090 C.3     1  VAL1        0.0020
    106 CG2         5.6950   21.4220    9.9620 C.3     1  VAL1        0.0020
    107 N           6.4050   17.4200    7.5090 N.am    2  THR2       -0.1939
    108 CA          7.0680   16.1650    7.1570 C.3     2  THR2        0.2028
    109 C           8.5830   16.1490    7.3400 C.2     2  THR2        0.2642
    110 O           9.2020   17.1770    7.6030 O.2     2  THR2       -0.2714
    111 CB          6.7700   15.7770    5.6920 C.3     2  THR2        0.1808
    112 OG1         7.4430   16.6820    4.8080 O.3     2  THR2       -0.2208
    113 CG2         5.2780   15.8330    5.4220 C.3     2  THR2        0.0379
    114 N           9.1690   14.9620    7.2110 N.am    3  GLU3       -0.1963
    115 CA         10.6120   14.8040    7.3210 C.3     3  GLU3        0.1731
    116 C          11.1680   15.3260    6.0200 C.2     3  GLU3        0.2616
    117 O          12.1570   16.0580    5.9940 O.2     3  GLU3       -0.2715
    118 CB         10.9950   13.3340    7.4390 C.3     3  GLU3        0.0370
    119 CG         12.4660   13.0770    7.1560 C.3     3  GLU3        0.0440
    120 CD         12.7870   11.6030    7.0110 C.2     3  GLU3        0.0504
    121 OE1        12.2270   10.9610    6.0940 O.co2   3  GLU3       -0.5492
    122 OE2        13.6000   11.0860    7.8100 O.co2   3  GLU3       -0.5492
    123 N          10.5040   14.9260    4.9390 N.am    4  GLN4       -0.1977
    124 CA         10.8810   15.3120    3.5920 C.3     4  GLN4        0.1601
    125 C          11.0200   16.8170    3.4900 C.2     4  GLN4        0.2287
    126 O          12.0020   17.3240    2.9530 O.2     4  GLN4       -0.2864
    127 CB          9.8370   14.8080    2.5970 C.3     4  GLN4        0.0394
    128 CG         10.4480   14.2460    1.3320 C.3     4  GLN4        0.0908
    129 CD         11.8010   13.6000    1.5960 C.2     4  GLN4        0.2608
    130 OE1        12.8210   14.2890    1.6650 O.2     4  GLN4       -0.2717
    131 NE2        11.8150   12.2800    1.7690 N.am    4  GLN4       -0.0878
    132 N          11.7040   19.0750    5.8040 N.3     1  GLN1       -0.1231
    133 CA         12.9150   19.5560    6.4670 C.3     1  GLN1        0.1698
    134 C          14.1580   19.2580    5.6340 C.2     1  GLN1        0.2592
    135 O          15.0850   20.0640    5.5810 O.2     1  GLN1       -0.2718
    136 CB         13.0670   18.9120    7.8500 C.3     1  GLN1        0.0381
    137 CG         11.9300   19.2230    8.7980 C.3     1  GLN1        0.0905
    138 CD         12.0370   18.4870   10.1220 C.2     1  GLN1        0.2608
    139 OE1        12.9360   18.7500   10.9260 O.2     1  GLN1       -0.2717
    140 NE2        11.1130   17.5560   10.3560 N.am    1  GLN1       -0.0878
    141 N          14.1680   18.1040    4.9780 N.am    2  LEU2       -0.1980
    142 CA         15.3110   17.7060    4.1660 C.3     2  LEU2        0.1596
    143 C          15.5630   18.5890    2.9490 C.2     2  LEU2        0.2287
    144 O          16.6470   19.1630    2.8160 O.2     2  LEU2       -0.2864
    145 CB         15.1760   16.2410    3.7220 C.3     2  LEU2        0.0297
    146 CG         15.2970   15.1630    4.8110 C.3     2  LEU2        0.0022
    147 CD1        15.3380   13.7940    4.1690 C.3     2  LEU2        0.0001
    148 CD2        16.5580   15.3810    5.6250 C.3     2  LEU2        0.0001
    149 N          13.1080   19.6810   14.1350 N.3     1  THR1       -0.1218
    150 CA         12.8840   18.5700   15.0520 C.3     1  THR1        0.1862
    151 C          13.5120   18.9170   16.3900 C.2     1  THR1        0.2287
    152 O          14.4950   19.6440   16.4360 O.2     1  THR1       -0.2866
    153 CB         13.5480   17.2890   14.5280 C.3     1  THR1        0.1770
    154 OG1        13.0000   16.9570   13.2480 O.3     1  THR1       -0.2211
    155 CG2        13.3280   16.1400   15.4910 C.3     1  THR1        0.0375
    156 N          17.7940   17.5850    9.6010 N.3     1  THR1       -0.1203
    157 CA         16.8850   16.9730   10.5680 C.3     1  THR1        0.1994
    158 C          17.5790   15.7870   11.2440 C.2     1  THR1        0.2618
    159 O          18.5600   15.2520   10.7250 O.2     1  THR1       -0.2717
    160 CB         15.6010   16.4570    9.8800 C.3     1  THR1        0.1784
    161 OG1        14.6270   16.1080   10.8720 O.3     1  THR1       -0.2211
    162 CG2        15.9160   15.2280    9.0380 C.3     1  THR1        0.0376
    163 N          17.0590   15.3640   12.3900 N.am    2  PHE2       -0.1961
    164 CA         17.6510   14.2490   13.1140 C.3     2  PHE2        0.1771
    165 C          16.5780   13.3840   13.7840 C.2     2  PHE2        0.2619
    166 O          15.3830   13.6190   13.6030 O.2     2  PHE2       -0.2715
    167 CB         18.6140   14.7920   14.1700 C.3     2  PHE2        0.0574
    168 CG         17.9300   15.3550   15.3830 C.ar    2  PHE2       -0.0200
    169 CD2        17.8800   14.6280   16.5660 C.ar    2  PHE2       -0.0042
    170 CD1        17.3170   16.5940   15.3370 C.ar    2  PHE2       -0.0042
    171 CE2        17.2240   15.1280   17.6920 C.ar    2  PHE2       -0.0003
    172 CE1        16.6560   17.1060   16.4530 C.ar    2  PHE2       -0.0003
    173 CZ         16.6090   16.3690   17.6340 C.ar    2  PHE2       -0.0000
    174 N          17.0160   12.3860   14.5510 N.am    3  ALA3       -0.1963
    175 CA         16.1230   11.4840   15.2810 C.3     3  ALA3        0.1728
    176 C          16.9390   10.5610   16.1900 C.2     3  ALA3        0.2616
    177 O          18.1140   10.2970   15.9190 O.2     3  ALA3       -0.2715
    178 CB         15.3030   10.6560   14.3080 C.3     3  ALA3        0.0334
    179 N          16.3230   10.0830   17.2700 N.am    4  VAL4       -0.1963
    180 CA         16.9960    9.1760   18.1950 C.3     4  VAL4        0.1727
    181 C          16.4200    7.7740   18.0370 C.2     4  VAL4        0.2617
    182 O          15.2160    7.6130   17.8250 O.2     4  VAL4       -0.2715
    183 CB         16.8310    9.6200   19.6670 C.3     4  VAL4        0.0290
    184 CG1        17.6220   10.8790   19.9190 C.3     4  VAL4        0.0023
    185 CG2        15.3740    9.8620   19.9810 C.3     4  VAL4        0.0023
    186 N          17.2820    6.7630   18.1360 N.am    5  GLY5       -0.1941
    187 CA         16.8340    5.3900   17.9930 C.3     5  GLY5        0.1998
    188 C          16.3320    5.1000   16.5860 C.2     5  GLY5        0.2480
    189 O          17.0440    5.3600   15.6160 O.2     5  GLY5       -0.2729
    190 N          15.1090    4.5620   16.4350 N.am    6  PRO6       -0.2726
    191 CA         14.1970    4.2230   17.5340 C.3     6  PRO6        0.1402
    192 C          14.6060    2.9400   18.2590 C.2     6  PRO6        0.2269
    193 O          15.3860    2.1420   17.7430 O.2     6  PRO6       -0.2865
    194 CB         12.8530    4.0930   16.8290 C.3     6  PRO6        0.0296
    195 CG         13.2340    3.5170   15.5200 C.3     6  PRO6        0.0237
    196 CD         14.4710    4.3140   15.1310 C.3     6  PRO6        0.0939
    197 N          21.0080    9.3150   14.5180 N.3     1  TYR1       -0.1241
    198 CA         21.5590    9.5520   13.1900 C.3     1  TYR1        0.1605
    199 C          21.1810   10.9770   12.8260 C.2     1  TYR1        0.2264
    200 O          20.2320   11.5250   13.3820 O.2     1  TYR1       -0.2867
    201 CB         20.9820    8.5660   12.1750 C.3     1  TYR1        0.0534
    202 CG         19.5400    8.8250   11.8000 C.ar    1  TYR1       -0.0201
    203 CD1        19.2140    9.5640   10.6640 C.ar    1  TYR1       -0.0009
    204 CD2        18.4970    8.3300   12.5830 C.ar    1  TYR1       -0.0009
    205 CE1        17.8900    9.8010   10.3220 C.ar    1  TYR1        0.0417
    206 CE2        17.1730    8.5620   12.2480 C.ar    1  TYR1        0.0417
    207 CZ         16.8750    9.2970   11.1200 C.ar    1  TYR1        0.1957
    208 OH         15.5600    9.5410   10.8000 O.3     1  TYR1       -0.2866
    209 N          21.0650   14.1230    9.4850 N.3     1  TYR1       -0.1241
    210 CA         21.2380   14.5750    8.1030 C.3     1  TYR1        0.1605
    211 C          22.1010   15.8320    8.1110 C.2     1  TYR1        0.2264
    212 O          21.6030   16.9410    8.3340 O.2     1  TYR1       -0.2867
    213 CB         19.8800   14.8870    7.4730 C.3     1  TYR1        0.0534
    214 CG         19.1640   13.6570    6.9960 C.ar    1  TYR1       -0.0201
    215 CD1        19.5030   13.0630    5.7820 C.ar    1  TYR1       -0.0009
    216 CD2        18.1920   13.0470    7.7840 C.ar    1  TYR1       -0.0009
    217 CE1        18.8940   11.8890    5.3640 C.ar    1  TYR1        0.0417
    218 CE2        17.5780   11.8690    7.3790 C.ar    1  TYR1        0.0417
    219 CZ         17.9370   11.2950    6.1680 C.ar    1  TYR1        0.1957
    220 OH         17.3590   10.1110    5.7810 O.3     1  TYR1       -0.2866
    221 N          21.6570    5.2980    8.8850 N.3     1  LEU1       -0.1231
    222 CA         20.3940    5.7960    9.4160 C.3     1  LEU1        0.1693
    223 C          20.1360    5.3580   10.8590 C.2     1  LEU1        0.2591
    224 O          21.0650    5.2560   11.6770 O.2     1  LEU1       -0.2718
    225 CB         19.2600    5.3330    8.5050 C.3     1  LEU1        0.0284
    226 CG         19.3600    5.9660    7.1120 C.3     1  LEU1        0.0019
    227 CD1        18.7180    5.0750    6.0760 C.3     1  LEU1        0.0001
    228 CD2        18.7130    7.3470    7.1400 C.3     1  LEU1        0.0001
    229 N          18.8710    5.1100   11.1720 N.am    2  GLU2       -0.1979
    230 CA         18.4930    4.6840   12.5090 C.3     2  GLU2        0.1600
    231 C          19.4650    3.6020   12.9690 C.2     2  GLU2        0.2287
    232 O          19.9110    2.7780   12.1700 O.2     2  GLU2       -0.2864
    233 CB         17.0690    4.1320   12.4840 C.3     2  GLU2        0.0356
    234 CG         16.0760    5.0450   11.8020 C.3     2  GLU2        0.0439
    235 CD         14.7940    4.3320   11.4150 C.2     2  GLU2        0.0504
    236 OE1        14.8640    3.2990   10.7220 O.co2   2  GLU2       -0.5492
    237 OE2        13.7100    4.8120   11.8000 O.co2   2  GLU2       -0.5492
    238 N          21.1020    1.0930    9.9360 N.3     1  ARG1       -0.1245
    239 CA         20.3460    0.9460    8.7010 C.3     1  ARG1        0.1563
    240 C          21.0420    1.7920    7.6420 C.2     1  ARG1        0.2260
    241 O          21.4660    2.9120    7.9310 O.2     1  ARG1       -0.2867
    242 CB         18.9270    1.4660    8.9200 C.3     1  ARG1        0.0307
    243 CG         18.1170    1.6870    7.6530 C.3     1  ARG1        0.0489
    244 CD         16.7800    2.3450    7.9800 C.3     1  ARG1        0.2205
    245 NE         15.9370    2.5120    6.8030 N.pl3   1  ARG1       -0.0865
    246 CZ         14.7350    3.0790    6.8180 C.cat   1  ARG1        0.5346
    247 NH2        14.2240    3.5370    7.9570 N.pl3   1  ARG1        0.1354
    248 NH1        14.0450    3.1990    5.6890 N.pl3   1  ARG1        0.1354
    249 N          15.4460    2.2610    1.2660 N.3     1  GLN1       -0.1245
    250 CA         16.4750    2.8110    2.1330 C.3     1  GLN1        0.1566
    251 C          16.6620    1.9060    3.3340 C.2     1  GLN1        0.2260
    252 O          17.0100    2.3660    4.4210 O.2     1  GLN1       -0.2867
    253 CB         16.0890    4.2170    2.6030 C.3     1  GLN1        0.0367
    254 CG         15.9910    5.2510    1.4890 C.3     1  GLN1        0.0905
    255 CD         15.5770    6.6330    1.9840 C.2     1  GLN1        0.2608
    256 OE1        15.6050    7.6080    1.2260 O.2     1  GLN1       -0.2717
    257 NE2        15.1870    6.7230    3.2550 N.am    1  GLN1       -0.0878
    258 N           9.9040   -5.7510    3.0120 N.3     1  ARG1       -0.1245
    259 CA         10.0460   -5.8980    4.4560 C.3     1  ARG1        0.1563
    260 C           9.2380   -7.0900    4.9200 C.2     1  ARG1        0.2260
    261 O           8.0480   -6.9820    5.1970 O.2     1  ARG1       -0.2867
    262 CB          9.5680   -4.6350    5.1670 C.3     1  ARG1        0.0307
    263 CG         10.4550   -3.4430    4.9100 C.3     1  ARG1        0.0489
    264 CD          9.9400   -2.1870    5.5680 C.3     1  ARG1        0.2205
    265 NE         10.9700   -1.1560    5.5340 N.pl3   1  ARG1       -0.0865
    266 CZ         10.8330    0.0630    6.0470 C.cat   1  ARG1        0.5346
    267 NH1        11.8360    0.9370    5.9670 N.pl3   1  ARG1        0.1354
    268 NH2         9.6910    0.4080    6.6340 N.pl3   1  ARG1        0.1354
    269 N           9.9410   -2.8110   11.4780 N.3     1  TYR1       -0.1241
    270 CA         10.7280   -2.4460   12.6480 C.3     1  TYR1        0.1605
    271 C          10.6620   -3.4570   13.7910 C.2     1  TYR1        0.2264
    272 O           9.7160   -4.2450   13.8920 O.2     1  TYR1       -0.2867
    273 CB         10.3090   -1.0690   13.1490 C.3     1  TYR1        0.0534
    274 CG         10.8580    0.0550   12.3120 C.ar    1  TYR1       -0.0201
    275 CD1        10.9730   -0.0720   10.9210 C.ar    1  TYR1       -0.0009
    276 CD2        11.2340    1.2640   12.8940 C.ar    1  TYR1       -0.0009
    277 CE1        11.4490    0.9750   10.1370 C.ar    1  TYR1        0.0417
    278 CE2        11.7090    2.3210   12.1150 C.ar    1  TYR1        0.0417
    279 CZ         11.8130    2.1640   10.7420 C.ar    1  TYR1        0.1957
    280 OH         12.2920    3.1980    9.9750 O.3     1  TYR1       -0.2866
    281 N           2.0190   -3.0550    8.7530 N.3     1  TYR1       -0.1241
    282 CA          1.9130   -2.1240    9.8710 C.3     1  TYR1        0.1605
    283 C           0.5340   -2.0670   10.5400 C.2     1  TYR1        0.2264
    284 O           0.1040   -1.0130   11.0070 O.2     1  TYR1       -0.2867
    285 CB          2.3210   -0.7260    9.3790 C.3     1  TYR1        0.0534
    286 CG          3.6140   -0.7270    8.5910 C.ar    1  TYR1       -0.0201
    287 CD2         4.8490   -0.8500    9.2320 C.ar    1  TYR1       -0.0009
    288 CD1         3.6020   -0.6590    7.1950 C.ar    1  TYR1       -0.0009
    289 CE2         6.0380   -0.9090    8.5000 C.ar    1  TYR1        0.0417
    290 CE1         4.7880   -0.7140    6.4510 C.ar    1  TYR1        0.0417
    291 CZ          5.9980   -0.8410    7.1090 C.ar    1  TYR1        0.1957
    292 OH          7.1610   -0.9230    6.3790 O.3     1  TYR1       -0.2866
@<TRIPOS>UNITY_ATOM_ATTR
27 1
charge -1
46 1
charge -1
55 1
charge -1
121 1
charge -1
236 1
charge -1
@<TRIPOS>BOND
     1     1     2    1
     2     2     5    1
     3     2     3    1
     4     3    12   am
     5     3     4    2
     6     5     6    1
     7     6     7    1
     8     7     8    1
     9     8     9    2
    10     9    11    1
    11     9    10    1
    12    12    13    1
    13    13    16    1
    14    13    14    1
    15    14    15    2
    16    16    17    1
    17    16    18    1
    18    17    19    1
    19    20    21    1
    20    21    24    1
    21    21    22    1
    22    22    23    2
    23    24    25    1
    24    25    26    1
    25    26    27   ar
    26    26    28   ar
    27    29    30    1
    28    30    33    1
    29    30    31    1
    30    31    32    2
    31    33    34    1
    32    34    35    1
    33    35    36    1
    34    36    37    2
    35    37    39    1
    36    37    38    1
    37    40    41    1
    38    41    44    1
    39    41    42    1
    40    42    48   am
    41    42    43    2
    42    44    45    1
    43    45    47   ar
    44    45    46   ar
    45    48    49    1
    46    49    52    1
    47    49    50    1
    48    50    51    2
    49    52    53    1
    50    53    54    1
    51    54    56   ar
    52    54    55   ar
    53    57    58    1
    54    58    61    1
    55    58    59    1
    56    59    60    2
    57    61    62    1
    58    62    63    1
    59    63    64    1
    60    64    65    2
    61    65    66    1
    62    65    67    1
    63    68    69    1
    64    69    72    1
    65    69    70    1
    66    70    76   am
    67    70    71    2
    68    72    73    1
    69    73    74    1
    70    74    75    1
    71    76    77    1
    72    77    80    1
    73    77    78    1
    74    78    79    2
    75    80    81    1
    76    81    83   am
    77    81    82    2
    78    84    85    1
    79    85    88    1
    80    85    86    1
    81    86    87    2
    82    88    90    1
    83    88    89    1
    84    89    91    1
    85    92    93    1
    86    93    96    1
    87    93    94    1
    88    94    95    2
    89    96    98    1
    90    96    97    1
    91    97    99    1
    92   100   101    1
    93   101   102    1
    94   101   104    1
    95   102   107   am
    96   102   103    2
    97   104   105    1
    98   104   106    1
    99   107   108    1
   100   108   111    1
   101   108   109    1
   102   109   114   am
   103   109   110    2
   104   111   112    1
   105   111   113    1
   106   114   115    1
   107   115   116    1
   108   115   118    1
   109   116   123   am
   110   116   117    2
   111   118   119    1
   112   119   120    1
   113   120   121   ar
   114   120   122   ar
   115   123   124    1
   116   124   127    1
   117   124   125    1
   118   125   126    2
   119   127   128    1
   120   128   129    1
   121   129   130    2
   122   129   131   am
   123   132   133    1
   124   133   134    1
   125   133   136    1
   126   134   141   am
   127   134   135    2
   128   136   137    1
   129   137   138    1
   130   138   140   am
   131   138   139    2
   132   141   142    1
   133   142   143    1
   134   142   145    1
   135   143   144    2
   136   145   146    1
   137   146   147    1
   138   146   148    1
   139   149   150    1
   140   150   153    1
   141   150   151    1
   142   151   152    2
   143   153   154    1
   144   153   155    1
   145   156   157    1
   146   157   160    1
   147   157   158    1
   148   158   159    2
   149   158   163   am
   150   160   162    1
   151   160   161    1
   152   163   164    1
   153   164   165    1
   154   164   167    1
   155   165   166    2
   156   165   174   am
   157   167   168    1
   158   168   170   ar
   159   168   169   ar
   160   169   171   ar
   161   170   172   ar
   162   171   173   ar
   163   172   173   ar
   164   174   175    1
   165   175   178    1
   166   175   176    1
   167   176   177    2
   168   176   179   am
   169   179   180    1
   170   180   181    1
   171   180   183    1
   172   181   182    2
   173   181   186   am
   174   183   184    1
   175   183   185    1
   176   186   187    1
   177   187   188    1
   178   188   189    2
   179   188   190   am
   180   190   196    1
   181   190   191    1
   182   191   194    1
   183   191   192    1
   184   192   193    2
   185   194   195    1
   186   195   196    1
   187   197   198    1
   188   198   201    1
   189   198   199    1
   190   199   200    2
   191   201   202    1
   192   202   203   ar
   193   202   204   ar
   194   203   205   ar
   195   204   206   ar
   196   205   207   ar
   197   206   207   ar
   198   207   208    1
   199   209   210    1
   200   210   213    1
   201   210   211    1
   202   211   212    2
   203   213   214    1
   204   214   215   ar
   205   214   216   ar
   206   215   217   ar
   207   216   218   ar
   208   217   219   ar
   209   218   219   ar
   210   219   220    1
   211   221   222    1
   212   222   225    1
   213   222   223    1
   214   223   229   am
   215   223   224    2
   216   225   226    1
   217   226   227    1
   218   226   228    1
   219   229   230    1
   220   230   233    1
   221   230   231    1
   222   231   232    2
   223   233   234    1
   224   234   235    1
   225   235   236   ar
   226   235   237   ar
   227   238   239    1
   228   239   240    1
   229   239   242    1
   230   240   241    2
   231   242   243    1
   232   243   244    1
   233   244   245    1
   234   245   246    2
   235   246   248    1
   236   246   247    1
   237   249   250    1
   238   250   253    1
   239   250   251    1
   240   251   252    2
   241   253   254    1
   242   254   255    1
   243   255   256    2
   244   255   257   am
   245   258   259    1
   246   259   260    1
   247   259   262    1
   248   260   261    2
   249   262   263    1
   250   263   264    1
   251   264   265    1
   252   265   266    2
   253   266   267    1
   254   266   268    1
   255   269   270    1
   256   270   273    1
   257   270   271    1
   258   271   272    2
   259   273   274    1
   260   274   275   ar
   261   274   276   ar
   262   275   277   ar
   263   276   278   ar
   264   277   279   ar
   265   278   279   ar
   266   279   280    1
   267   281   282    1
   268   282   285    1
   269   282   283    1
   270   283   284    2
   271   285   286    1
   272   286   288   ar
   273   286   287   ar
   274   287   289   ar
   275   288   290   ar
   276   289   291   ar
   277   290   291   ar
   278   291   292    1
