@<TRIPOS>MOLECULE
./2tga/ligand.pdb
 33 36 0 0 0
SMALL
GASTEIGER

@<TRIPOS>ATOM
      1  N1        30.1770   15.1780   12.7650 N.pl3   1  DX91        0.2047
      2  C2        29.5010   15.7310   13.6910 C.2     1  DX91        0.4766
      3  N2        28.9960   17.0900   13.6140 N.pl3   1  DX91        0.2047
      4  C4        29.1590   14.9250   14.9110 C.ar    1  DX91        0.0975
      5  C5        28.6700   15.5540   16.0850 C.ar    1  DX91        0.0080
      6  C6        28.3420   14.8070   17.2320 C.ar    1  DX91        0.0003
      7  C7        28.4890   13.4200   17.2120 C.ar    1  DX91       -0.0000
      8  C8        28.9740   12.8030   16.0210 C.ar    1  DX91       -0.0001
      9  C9        29.2930   13.5430   14.8900 C.ar    1  DX91        0.0080
     10  C10       28.1740   12.6380   18.3360 C.ar    1  DX91       -0.0003
     11  C11       28.3350   11.2370   18.2700 C.ar    1  DX91       -0.0042
     12  C12       29.1290   11.4250   15.9630 C.ar    1  DX91       -0.0042
     13  C13       28.8110   10.6450   17.0780 C.ar    1  DX91       -0.0215
     14  C14       29.0130    9.1480   16.9340 C.3     1  DX91        0.0363
     15  C15       27.7540    8.3360   17.3380 C.3     1  DX91        0.0631
     16  C16       26.4880    8.4970   16.4490 C.ar    1  DX91       -0.0167
     17  C17       26.6970    8.8470   15.0930 C.ar    1  DX91       -0.0008
     18  C18       25.5950    9.0090   14.2620 C.ar    1  DX91        0.0366
     19  C19       24.2920    8.8250   14.7840 C.ar    1  DX91        0.1386
     20  C20       24.0060    8.4440   16.2600 C.ar    1  DX91        0.0366
     21  C21       25.0330    8.2720   17.0890 C.ar    1  DX91       -0.0008
     22  C22       28.0140    6.8790   17.4520 C.2     1  DX91        0.0544
     23  O23       27.6190    6.2270   18.4150 O.co2   1  DX91       -0.5488
     24  O24       28.6210    6.2620   16.5880 O.co2   1  DX91       -0.5488
     25  O25       23.3160    9.0370   13.8050 O.3     1  DX91       -0.4748
     26  C26       21.9820    8.4810   13.8330 C.3     1  DX91        0.2164
     27  C27       21.9280    6.9890   13.4310 C.3     1  DX91        0.2459
     28  N28       21.9360    7.1010   11.9800 N.pl3   1  DX91       -0.1871
     29  C29       21.5120    8.4190   11.4890 C.3     1  DX91        0.2061
     30  C30       21.0260    9.0990   12.7970 C.3     1  DX91        0.0986
     31  C31       22.2830    6.0930   11.2050 C.2     1  DX91        0.3532
     32  N32       22.2530    6.1890    9.9300 N.2     1  DX91        0.1879
     33  C33       22.7350    4.7550   11.8050 C.3     1  DX91        0.1349
@<TRIPOS>UNITY_ATOM_ATTR
23 1
charge -1
@<TRIPOS>BOND
     1     1     2    2
     2     2     3    1
     3     2     4    1
     4     4     9   ar
     5     4     5   ar
     6     5     6   ar
     7     6     7   ar
     8     7     8   ar
     9     7    10   ar
    10     8     9   ar
    11     8    12   ar
    12    10    11   ar
    13    11    13   ar
    14    12    13   ar
    15    13    14    1
    16    14    15    1
    17    15    16    1
    18    15    22    1
    19    16    17   ar
    20    16    21   ar
    21    17    18   ar
    22    18    19   ar
    23    19    25    1
    24    19    20   ar
    25    20    21   ar
    26    22    23   ar
    27    22    24   ar
    28    25    26    1
    29    26    30    1
    30    26    27    1
    31    27    28    1
    32    28    29    1
    33    28    31    1
    34    29    30    1
    35    31    32    2
    36    31    33    1
