@<TRIPOS>MOLECULE
./2j72/protein.pdb
 105 105 0 0 0
SMALL
GASTEIGER

@<TRIPOS>ATOM
      1 N          56.2020   20.7140   23.6380 N.3     1  TRP1       -0.1227
      2 CA         57.1350   20.5930   24.7520 C.3     1  TRP1        0.1734
      3 C          58.2180   19.6180   24.3450 C.2     1  TRP1        0.2595
      4 O          57.9630   18.4400   24.1370 O.2     1  TRP1       -0.2718
      5 CB         56.4370   20.1350   26.0250 C.3     1  TRP1        0.0527
      6 CG         57.3270   20.1820   27.2510 C.2     1  TRP1       -0.0139
      7 CD1        58.0410   19.1430   27.8170 C.2     1  TRP1        0.0907
      8 CD2        57.6220   21.3460   28.0560 C.3     1  TRP1        0.0819
      9 NE1        58.7240   19.5960   28.9340 N.2     1  TRP1       -0.2482
     10 CE2        58.4960   20.9300   29.0970 C.2     1  TRP1        0.0665
     11 CE3        57.2100   22.6770   28.0240 C.2     1  TRP1       -0.0164
     12 CZ2        58.9650   21.8160   30.0980 C.2     1  TRP1        0.0153
     13 CZ3        57.7020   23.5790   29.0720 C.2     1  TRP1       -0.0038
     14 CH2        58.5160   23.1190   30.0690 C.2     1  TRP1        0.0009
     15 N          59.4120   20.1560   24.1680 N.am    2  ILE2       -0.1966
     16 CA         60.5770   19.3590   23.7690 C.3     2  ILE2        0.1727
     17 C          61.7550   19.5320   24.7550 C.2     2  ILE2        0.2616
     18 O          61.9950   20.6240   25.2600 O.2     2  ILE2       -0.2715
     19 CB         60.9700   19.7850   22.3540 C.3     2  ILE2        0.0290
     20 CG1        59.8630   19.3520   21.3700 C.3     2  ILE2        0.0022
     21 CG2        62.3210   19.2160   21.9500 C.3     2  ILE2        0.0023
     22 CD1        59.9640   19.9800   19.9440 C.3     2  ILE2        0.0001
     23 N          62.3930   18.4100   25.0810 N.am    3  TRP3       -0.1974
     24 CA         63.4910   18.3950   26.0330 C.3     3  TRP3        0.1637
     25 C          64.6260   17.5450   25.4760 C.2     3  TRP3        0.2290
     26 O          64.4130   16.5090   24.8650 O.2     3  TRP3       -0.2864
     27 CB         63.0650   17.9100   27.4100 C.3     3  TRP3        0.0537
     28 CG         62.6440   16.4900   27.5510 C.2     3  TRP3       -0.0165
     29 CD1        63.3620   15.4790   28.0760 C.3     3  TRP3        0.1477
     30 CD2        61.3390   15.9210   27.2340 C.ar    3  TRP3        0.0113
     31 NE1        62.6260   14.3360   28.1010 N.2     3  TRP3       -0.2659
     32 CE2        61.3840   14.5670   27.5740 C.ar    3  TRP3        0.0758
     33 CE3        60.1530   16.4350   26.7090 C.ar    3  TRP3        0.0009
     34 CZ2        60.2770   13.6900   27.4050 C.ar    3  TRP3        0.0187
     35 CZ3        59.0780   15.5790   26.5060 C.ar    3  TRP3        0.0001
     36 CH2        59.1390   14.2200   26.8810 C.ar    3  TRP3        0.0015
     37 N          65.8040   19.6990   31.4750 N.3     1  GLU1       -0.1231
     38 CA         64.3950   20.1410   31.4060 C.3     1  GLU1        0.1697
     39 C          64.0760   20.8290   30.0550 C.2     1  GLU1        0.2593
     40 O          64.9250   21.5020   29.4700 O.2     1  GLU1       -0.2718
     41 CB         64.0660   21.1050   32.5530 C.3     1  GLU1        0.0343
     42 CG         63.9800   20.4100   33.9020 C.3     1  GLU1        0.0437
     43 CD         62.7920   19.4330   34.0570 C.2     1  GLU1        0.0504
     44 OE1        61.6790   19.6640   33.4650 O.co2   1  GLU1       -0.5492
     45 OE2        62.9600   18.4310   34.8370 O.co2   1  GLU1       -0.5492
     46 N          62.8160   20.6870   29.6190 N.am    2  GLY2       -0.1942
     47 CA         62.3280   21.2260   28.3690 C.3     2  GLY2        0.2014
     48 C          61.8380   22.6520   28.3620 C.2     2  GLY2        0.2639
     49 O          62.0010   23.4290   29.3190 O.2     2  GLY2       -0.2714
     50 N          61.2410   23.0190   27.2240 N.am    3  LYS3       -0.1963
     51 CA         60.7970   24.3410   26.8950 C.3     3  LYS3        0.1728
     52 C          59.6330   24.1190   25.9640 C.2     3  LYS3        0.2616
     53 O          59.5830   23.0760   25.3080 O.2     3  LYS3       -0.2715
     54 CB         61.9320   24.9840   26.0780 C.3     3  LYS3        0.0311
     55 CG         61.8650   26.3920   25.8870 C.3     3  LYS3        0.0038
     56 CD         63.2550   26.8440   25.5950 C.3     3  LYS3        0.0206
     57 CE         63.3330   28.1100   24.8700 C.3     3  LYS3        0.1093
     58 NZ         64.7690   28.4510   24.6690 N.3     3  LYS3       -0.1314
     59 N          58.7520   25.1100   25.8400 N.am    4  ALA4       -0.1977
     60 CA         57.6660   25.1050   24.8880 C.3     4  ALA4        0.1597
     61 C          58.1240   25.8330   23.6140 C.2     4  ALA4        0.2287
     62 O          58.8700   26.8400   23.6390 O.2     4  ALA4       -0.2864
     63 CB         56.4320   25.8150   25.4650 C.3     4  ALA4        0.0319
     64 N          56.2110   16.2510   23.5980 N.3     1  ILE1       -0.1245
     65 CA         54.8040   16.1470   23.9660 C.3     1  ILE1        0.1561
     66 C          54.0840   17.3050   23.2700 C.2     1  ILE1        0.2260
     67 O          54.5570   18.4520   23.3410 O.2     1  ILE1       -0.2867
     68 CB         54.5250   16.2460   25.4970 C.3     1  ILE1        0.0252
     69 CG1        55.1820   15.0880   26.2440 C.3     1  ILE1        0.0019
     70 CG2        53.0350   16.2370   25.7480 C.3     1  ILE1        0.0019
     71 CD1        55.5170   15.3740   27.7150 C.3     1  ILE1        0.0001
     72 N          51.0360   19.5890   23.5400 N.3     1  ARG1       -0.1245
     73 CA         50.2150   20.0480   24.6830 C.3     1  ARG1        0.1563
     74 C          49.3700   21.2580   24.3190 C.2     1  ARG1        0.2260
     75 O          49.6960   22.0330   23.4120 O.2     1  ARG1       -0.2867
     76 CB         51.0980   20.4030   25.8890 C.3     1  ARG1        0.0307
     77 CG         51.9260   21.6340   25.6660 C.3     1  ARG1        0.0489
     78 CD         52.8150   22.1140   26.8930 C.3     1  ARG1        0.2205
     79 NE         53.2550   23.4830   26.6570 N.pl3   1  ARG1       -0.0865
     80 CZ         53.5700   24.3540   27.6320 C.cat   1  ARG1        0.5346
     81 NH2        53.6060   23.9210   28.8900 N.pl3   1  ARG1        0.1354
     82 NH1        53.8390   25.6290   27.3630 N.pl3   1  ARG1        0.1354
     83 N          49.7670   23.1060   29.5750 N.3     1  TRP1       -0.1241
     84 CA         49.4590   21.7590   30.0840 C.3     1  TRP1        0.1602
     85 C          47.9450   21.5190   30.3850 C.2     1  TRP1        0.2264
     86 O          47.5550   20.6910   31.2620 O.2     1  TRP1       -0.2867
     87 CB         50.2770   21.4470   31.3690 C.3     1  TRP1        0.0510
     88 CG         51.7480   21.3700   31.1420 C.2     1  TRP1       -0.0168
     89 CD1        52.6710   22.1740   31.6460 C.3     1  TRP1        0.1477
     90 CD2        52.4430   20.4890   30.2400 C.ar    1  TRP1        0.0113
     91 NE1        53.9270   21.8280   31.2060 N.2     1  TRP1       -0.2659
     92 CE2        53.8070   20.8140   30.3080 C.ar    1  TRP1        0.0758
     93 CE3        52.0330   19.4780   29.3630 C.ar    1  TRP1        0.0009
     94 CZ2        54.7830   20.1470   29.5740 C.ar    1  TRP1        0.0187
     95 CZ3        52.9970   18.7880   28.6570 C.ar    1  TRP1        0.0001
     96 CH2        54.3490   19.1270   28.7600 C.ar    1  TRP1        0.0015
     97 N          47.0980   17.0320   26.8230 N.3     1  LYS1       -0.1245
     98 CA         48.1240   16.4330   25.9580 C.3     1  LYS1        0.1561
     99 C          47.3990   15.6870   24.8560 C.2     1  LYS1        0.2260
    100 O          46.3380   15.0780   25.0510 O.2     1  LYS1       -0.2867
    101 CB         48.9900   15.4550   26.7370 C.3     1  LYS1        0.0271
    102 CG         49.7860   16.0520   27.9120 C.3     1  LYS1        0.0035
    103 CD         50.5580   14.9830   28.6690 C.3     1  LYS1        0.0206
    104 CE         51.5680   15.6240   29.6530 C.3     1  LYS1        0.1093
    105 NZ         52.2100   14.6440   30.5410 N.3     1  LYS1       -0.1314
@<TRIPOS>UNITY_ATOM_ATTR
44 1
charge -1
@<TRIPOS>BOND
     1     1     2    1
     2     2     3    1
     3     2     5    1
     4     3     4    2
     5     3    15   am
     6     5     6    1
     7     6     7    2
     8     6     8    1
     9     7     9    1
    10     8    11    1
    11     8    10    1
    12     9    10    2
    13    10    12    1
    14    11    13    2
    15    12    14    2
    16    13    14    1
    17    15    16    1
    18    16    19    1
    19    16    17    1
    20    17    23   am
    21    17    18    2
    22    19    20    1
    23    19    21    1
    24    20    22    1
    25    23    24    1
    26    24    25    1
    27    24    27    1
    28    25    26    2
    29    27    28    1
    30    28    30    2
    31    28    29    1
    32    29    31    1
    33    30    33   ar
    34    30    32   ar
    35    31    32    2
    36    32    34   ar
    37    33    35   ar
    38    34    36   ar
    39    35    36   ar
    40    37    38    1
    41    38    39    1
    42    38    41    1
    43    39    40    2
    44    39    46   am
    45    41    42    1
    46    42    43    1
    47    43    44   ar
    48    43    45   ar
    49    46    47    1
    50    47    48    1
    51    48    50   am
    52    48    49    2
    53    50    51    1
    54    51    52    1
    55    51    54    1
    56    52    53    2
    57    52    59   am
    58    54    55    1
    59    55    56    1
    60    56    57    1
    61    57    58    1
    62    59    60    1
    63    60    61    1
    64    60    63    1
    65    61    62    2
    66    64    65    1
    67    65    66    1
    68    65    68    1
    69    66    67    2
    70    68    70    1
    71    68    69    1
    72    69    71    1
    73    72    73    1
    74    73    74    1
    75    73    76    1
    76    74    75    2
    77    76    77    1
    78    77    78    1
    79    78    79    1
    80    79    80    2
    81    80    82    1
    82    80    81    1
    83    83    84    1
    84    84    85    1
    85    84    87    1
    86    85    86    2
    87    87    88    1
    88    88    90    2
    89    88    89    1
    90    89    91    1
    91    90    93   ar
    92    90    92   ar
    93    91    92    2
    94    92    94   ar
    95    93    95   ar
    96    94    96   ar
    97    95    96   ar
    98    97    98    1
    99    98    99    1
   100    98   101    1
   101    99   100    2
   102   101   102    1
   103   102   103    1
   104   103   104    1
   105   104   105    1
