@<TRIPOS>MOLECULE
./5gal/protein.pdb
 152 152 0 0 0
SMALL
GASTEIGER

@<TRIPOS>ATOM
      1 N          11.4470   47.4580   43.1760 N.3     1  VAL1       -0.1245
      2 CA         12.8240   47.8850   43.2250 C.3     1  VAL1        0.1561
      3 C          13.4770   47.0510   42.1500 C.2     1  VAL1        0.2260
      4 O          13.3450   45.8300   42.1500 O.2     1  VAL1       -0.2867
      5 CB         13.4590   47.5690   44.5730 C.3     1  VAL1        0.0252
      6 CG1        14.8940   48.1040   44.6150 C.3     1  VAL1        0.0019
      7 CG2        12.6060   48.1700   45.6750 C.3     1  VAL1        0.0019
      8 N          17.4710   41.9440   38.9180 N.3     1  LEU1       -0.1231
      9 CA         16.5670   41.6810   40.0280 C.3     1  LEU1        0.1693
     10 C          15.3830   42.6230   39.9980 C.2     1  LEU1        0.2592
     11 O          15.5620   43.8220   39.8580 O.2     1  LEU1       -0.2718
     12 CB         17.2910   41.8440   41.3650 C.3     1  LEU1        0.0284
     13 CG         16.3850   41.6090   42.5750 C.3     1  LEU1        0.0019
     14 CD1        16.0430   40.1370   42.7060 C.3     1  LEU1        0.0001
     15 CD2        17.0820   42.0920   43.8110 C.3     1  LEU1        0.0001
     16 N          14.1900   42.0500   40.1140 N.am    2  HIS2       -0.1962
     17 CA         12.9180   42.7640   40.1510 C.3     2  HIS2        0.1784
     18 C          12.2380   42.2690   41.4360 C.2     2  HIS2        0.2620
     19 O          11.8680   41.0900   41.5510 O.2     2  HIS2       -0.2715
     20 CB         12.0570   42.4290   38.9070 C.3     2  HIS2        0.0745
     21 CG         10.6340   42.9110   38.9920 C.2     2  HIS2        0.0653
     22 ND1        10.2860   44.2450   38.9030 N.2     2  HIS2       -0.2310
     23 CD2         9.4760   42.2380   39.2000 C.3     2  HIS2        0.1683
     24 CE1         8.9800   44.3720   39.0560 C.2     2  HIS2        0.1939
     25 NE2         8.4650   43.1700   39.2380 N.2     2  HIS2       -0.2440
     26 N          12.1260   43.1680   42.4140 N.am    3  PHE3       -0.1960
     27 CA         11.5160   42.8890   43.7170 C.3     3  PHE3        0.1771
     28 C          10.2020   43.6680   43.7010 C.2     3  PHE3        0.2619
     29 O          10.2100   44.8970   43.5920 O.2     3  PHE3       -0.2715
     30 CB         12.4550   43.3890   44.8110 C.3     3  PHE3        0.0574
     31 CG         11.9290   43.2150   46.1970 C.ar    3  PHE3       -0.0200
     32 CD1        11.6230   41.9500   46.6840 C.ar    3  PHE3       -0.0042
     33 CD2        11.7560   44.3230   47.0260 C.ar    3  PHE3       -0.0042
     34 CE1        11.1540   41.7840   47.9700 C.ar    3  PHE3       -0.0003
     35 CE2        11.2880   44.1700   48.3160 C.ar    3  PHE3       -0.0003
     36 CZ         10.9850   42.8930   48.7900 C.ar    3  PHE3       -0.0000
     37 N           9.0830   42.9600   43.8540 N.am    4  ASN4       -0.1972
     38 CA          7.7710   43.5820   43.7150 C.3     4  ASN4        0.1688
     39 C           6.6640   43.2980   44.7370 C.2     4  ASN4        0.2292
     40 O           5.8020   42.4680   44.4860 O.2     4  ASN4       -0.2864
     41 CB          7.3060   43.2190   42.2920 C.3     4  ASN4        0.1181
     42 CG          5.9640   43.8150   41.8970 C.2     4  ASN4        0.2629
     43 OD1         5.2550   43.2080   41.0940 O.2     4  ASN4       -0.2716
     44 ND2         5.6210   44.9950   42.4170 N.am    4  ASN4       -0.0877
     45 N           6.6130   39.2840   44.4550 N.3     1  VAL1       -0.1231
     46 CA          7.2890   38.6090   43.3610 C.3     1  VAL1        0.1692
     47 C           8.7410   39.0240   43.1010 C.2     1  VAL1        0.2592
     48 O           9.0740   40.2080   43.0880 O.2     1  VAL1       -0.2718
     49 CB          6.4630   38.8060   42.0740 C.3     1  VAL1        0.0266
     50 CG1         7.1040   38.0950   40.8800 C.3     1  VAL1        0.0020
     51 CG2         5.0490   38.3220   42.3220 C.3     1  VAL1        0.0020
     52 N           9.6070   38.0360   42.9120 N.am    2  PHE2       -0.1962
     53 CA         11.0040   38.2920   42.5840 C.3     2  PHE2        0.1771
     54 C          11.0800   37.8040   41.1400 C.2     2  PHE2        0.2619
     55 O          10.3880   36.8470   40.7730 O.2     2  PHE2       -0.2715
     56 CB         11.9520   37.4650   43.4500 C.3     2  PHE2        0.0574
     57 CG         12.0030   37.8900   44.8850 C.ar    2  PHE2       -0.0200
     58 CD2        10.9120   37.6880   45.7270 C.ar    2  PHE2       -0.0042
     59 CD1        13.1580   38.4600   45.4100 C.ar    2  PHE2       -0.0042
     60 CE2        10.9690   38.0430   47.0720 C.ar    2  PHE2       -0.0003
     61 CE1        13.2260   38.8190   46.7560 C.ar    2  PHE2       -0.0003
     62 CZ         12.1320   38.6100   47.5860 C.ar    2  PHE2       -0.0000
     63 N          11.8880   38.4540   40.3100 N.am    3  ASN3       -0.1972
     64 CA         11.9900   38.0330   38.9220 C.3     3  ASN3        0.1688
     65 C          13.1530   38.6950   38.2000 C.2     3  ASN3        0.2292
     66 O          13.7560   39.6440   38.6910 O.2     3  ASN3       -0.2864
     67 CB         10.6720   38.3300   38.1800 C.3     3  ASN3        0.1181
     68 CG         10.3300   37.2780   37.1160 C.2     3  ASN3        0.2629
     69 OD1        11.1750   36.4620   36.7240 O.2     3  ASN3       -0.2716
     70 ND2         9.0850   37.3030   36.6400 N.am    3  ASN3       -0.0877
     71 N          16.6790   45.5700   53.2180 N.3     1  LEU1       -0.1231
     72 CA         18.1010   45.4280   52.9710 C.3     1  LEU1        0.1693
     73 C          18.2090   44.4360   51.8290 C.2     1  LEU1        0.2592
     74 O          17.5930   43.3710   51.8860 O.2     1  LEU1       -0.2718
     75 CB         18.8250   44.8400   54.1760 C.3     1  LEU1        0.0284
     76 CG         19.1020   45.7060   55.3990 C.3     1  LEU1        0.0019
     77 CD2        19.9150   44.8680   56.3910 C.3     1  LEU1        0.0001
     78 CD1        19.8590   46.9720   55.0150 C.3     1  LEU1        0.0001
     79 N          18.9640   44.7800   50.7910 N.am    2  ILE2       -0.1966
     80 CA         19.1690   43.8700   49.6700 C.3     2  ILE2        0.1727
     81 C          20.6630   43.5770   49.6770 C.2     2  ILE2        0.2616
     82 O          21.4920   44.4460   49.3530 O.2     2  ILE2       -0.2715
     83 CB         18.7490   44.5160   48.3570 C.3     2  ILE2        0.0290
     84 CG1        17.2600   44.8440   48.4190 C.3     2  ILE2        0.0022
     85 CG2        19.0480   43.5840   47.2020 C.3     2  ILE2        0.0023
     86 CD1        16.7770   45.5600   47.2130 C.3     2  ILE2        0.0001
     87 N          21.0170   42.3620   50.0720 N.am    3  ILE3       -0.1977
     88 CA         22.4250   42.0110   50.1800 C.3     3  ILE3        0.1596
     89 C          22.9180   41.0710   49.0890 C.2     3  ILE3        0.2287
     90 O          22.4100   39.9670   48.9410 O.2     3  ILE3       -0.2864
     91 CB         22.7210   41.3600   51.5780 C.3     3  ILE3        0.0276
     92 CG1        22.1270   42.2070   52.7110 C.3     3  ILE3        0.0022
     93 CG2        24.2110   41.1840   51.7790 C.3     3  ILE3        0.0022
     94 CD1        21.9100   41.4110   54.0200 C.3     3  ILE3        0.0001
     95 N          21.0070   37.3700   45.8600 N.3     1  PHE1       -0.1227
     96 CA         20.5780   38.5120   46.6480 C.3     1  PHE1        0.1736
     97 C          19.7280   38.0340   47.8010 C.2     1  PHE1        0.2595
     98 O          18.8160   37.2280   47.6320 O.2     1  PHE1       -0.2718
     99 CB         19.7530   39.4770   45.8070 C.3     1  PHE1        0.0547
    100 CG         20.5140   40.0960   44.6780 C.ar    1  PHE1       -0.0202
    101 CD2        21.4540   41.0870   44.9180 C.ar    1  PHE1       -0.0042
    102 CD1        20.2970   39.6850   43.3680 C.ar    1  PHE1       -0.0042
    103 CE2        22.1720   41.6570   43.8640 C.ar    1  PHE1       -0.0003
    104 CE1        21.0080   40.2520   42.3130 C.ar    1  PHE1       -0.0003
    105 CZ         21.9460   41.2370   42.5600 C.ar    1  PHE1       -0.0000
    106 N          20.0520   38.5320   48.9840 N.am    2  LYS2       -0.1966
    107 CA         19.3070   38.1980   50.1760 C.3     2  LYS2        0.1728
    108 C          18.4070   39.4020   50.3630 C.2     2  LYS2        0.2616
    109 O          18.8730   40.5350   50.2510 O.2     2  LYS2       -0.2715
    110 CB         20.2410   38.0800   51.3860 C.3     2  LYS2        0.0311
    111 CG         20.6940   36.6750   51.7140 C.3     2  LYS2        0.0038
    112 CD         22.2010   36.5560   51.6300 C.3     2  LYS2        0.0206
    113 CE         22.8850   37.4100   52.6540 C.3     2  LYS2        0.1093
    114 NZ         23.8040   36.5760   53.4590 N.3     2  LYS2       -0.1314
    115 N          17.1290   39.1660   50.6160 N.am    3  ALA3       -0.1977
    116 CA         16.1990   40.2540   50.8570 C.3     3  ALA3        0.1597
    117 C          15.8140   40.1550   52.3270 C.2     3  ALA3        0.2287
    118 O          15.2780   39.1430   52.7700 O.2     3  ALA3       -0.2864
    119 CB         14.9580   40.1270   49.9590 C.3     3  ALA3        0.0319
    120 N          14.2070   37.5430   54.4430 N.3     1  TYR1       -0.1227
    121 CA         12.9180   37.2630   53.8460 C.3     1  TYR1        0.1736
    122 C          12.9470   36.2780   52.6970 C.2     1  TYR1        0.2595
    123 O          12.0840   35.4100   52.5920 O.2     1  TYR1       -0.2718
    124 CB         12.2800   38.6010   53.4040 C.3     1  TYR1        0.0548
    125 CG         11.0050   38.4660   52.5950 C.ar    1  TYR1       -0.0200
    126 CD2         9.8120   38.0580   53.1980 C.ar    1  TYR1       -0.0009
    127 CD1        11.0040   38.6820   51.2140 C.ar    1  TYR1       -0.0009
    128 CE2         8.6550   37.8550   52.4450 C.ar    1  TYR1        0.0417
    129 CE1         9.8520   38.4800   50.4520 C.ar    1  TYR1        0.0417
    130 CZ          8.6870   38.0610   51.0750 C.ar    1  TYR1        0.1957
    131 OH          7.5760   37.7850   50.3180 O.3     1  TYR1       -0.2866
    132 N          13.9490   36.4010   51.8400 N.am    2  HIS2       -0.1975
    133 CA         14.0200   35.5400   50.6920 C.3     2  HIS2        0.1656
    134 C          15.3980   35.6240   50.0850 C.2     2  HIS2        0.2291
    135 O          16.0680   36.6350   50.2060 O.2     2  HIS2       -0.2864
    136 CB         12.9690   35.9760   49.6690 C.3     2  HIS2        0.0771
    137 CG         12.9250   35.1200   48.4450 C.ar    2  HIS2        0.0820
    138 ND1        12.4010   33.8450   48.4490 N.ar    2  HIS2       -0.2267
    139 CD2        13.3520   35.3480   47.1810 C.ar    2  HIS2        0.1154
    140 CE1        12.5070   33.3240   47.2400 C.ar    2  HIS2        0.1986
    141 NE2        13.0810   34.2150   46.4510 N.ar    2  HIS2       -0.2212
    142 N          17.4890   35.1160   46.4820 N.3     1  PHE1       -0.1241
    143 CA         17.2730   35.0480   45.0480 C.3     1  PHE1        0.1605
    144 C          18.6080   34.7490   44.4220 C.2     1  PHE1        0.2264
    145 O          19.5580   35.5060   44.5870 O.2     1  PHE1       -0.2867
    146 CB         16.7380   36.3930   44.5590 C.3     1  PHE1        0.0534
    147 CG         16.3390   36.4090   43.1140 C.ar    1  PHE1       -0.0203
    148 CD1        17.2580   36.7280   42.1310 C.ar    1  PHE1       -0.0042
    149 CD2        15.0240   36.1480   42.7390 C.ar    1  PHE1       -0.0042
    150 CE1        16.8820   36.7930   40.7930 C.ar    1  PHE1       -0.0003
    151 CE2        14.6380   36.2090   41.4010 C.ar    1  PHE1       -0.0003
    152 CZ         15.5720   36.5340   40.4290 C.ar    1  PHE1       -0.0000
@<TRIPOS>BOND
     1     1     2    1
     2     2     3    1
     3     2     5    1
     4     3     4    2
     5     5     6    1
     6     5     7    1
     7     8     9    1
     8     9    10    1
     9     9    12    1
    10    10    11    2
    11    10    16   am
    12    12    13    1
    13    13    14    1
    14    13    15    1
    15    16    17    1
    16    17    20    1
    17    17    18    1
    18    18    19    2
    19    18    26   am
    20    20    21    1
    21    21    22    2
    22    21    23    1
    23    22    24    1
    24    23    25    1
    25    24    25    2
    26    26    27    1
    27    27    28    1
    28    27    30    1
    29    28    29    2
    30    28    37   am
    31    30    31    1
    32    31    32   ar
    33    31    33   ar
    34    32    34   ar
    35    33    35   ar
    36    34    36   ar
    37    35    36   ar
    38    37    38    1
    39    38    41    1
    40    38    39    1
    41    39    40    2
    42    41    42    1
    43    42    43    2
    44    42    44   am
    45    45    46    1
    46    46    49    1
    47    46    47    1
    48    47    52   am
    49    47    48    2
    50    49    50    1
    51    49    51    1
    52    52    53    1
    53    53    54    1
    54    53    56    1
    55    54    63   am
    56    54    55    2
    57    56    57    1
    58    57    59   ar
    59    57    58   ar
    60    58    60   ar
    61    59    61   ar
    62    60    62   ar
    63    61    62   ar
    64    63    64    1
    65    64    67    1
    66    64    65    1
    67    65    66    2
    68    67    68    1
    69    68    70   am
    70    68    69    2
    71    71    72    1
    72    72    73    1
    73    72    75    1
    74    73    79   am
    75    73    74    2
    76    75    76    1
    77    76    78    1
    78    76    77    1
    79    79    80    1
    80    80    83    1
    81    80    81    1
    82    81    82    2
    83    81    87   am
    84    83    85    1
    85    83    84    1
    86    84    86    1
    87    87    88    1
    88    88    89    1
    89    88    91    1
    90    89    90    2
    91    91    93    1
    92    91    92    1
    93    92    94    1
    94    95    96    1
    95    96    99    1
    96    96    97    1
    97    97    98    2
    98    97   106   am
    99    99   100    1
   100   100   102   ar
   101   100   101   ar
   102   101   103   ar
   103   102   104   ar
   104   103   105   ar
   105   104   105   ar
   106   106   107    1
   107   107   108    1
   108   107   110    1
   109   108   109    2
   110   108   115   am
   111   110   111    1
   112   111   112    1
   113   112   113    1
   114   113   114    1
   115   115   116    1
   116   116   119    1
   117   116   117    1
   118   117   118    2
   119   120   121    1
   120   121   122    1
   121   121   124    1
   122   122   132   am
   123   122   123    2
   124   124   125    1
   125   125   127   ar
   126   125   126   ar
   127   126   128   ar
   128   127   129   ar
   129   128   130   ar
   130   129   130   ar
   131   130   131    1
   132   132   133    1
   133   133   136    1
   134   133   134    1
   135   134   135    2
   136   136   137    1
   137   137   139   ar
   138   137   138   ar
   139   138   140   ar
   140   139   141   ar
   141   140   141   ar
   142   142   143    1
   143   143   144    1
   144   143   146    1
   145   144   145    2
   146   146   147    1
   147   147   148   ar
   148   147   149   ar
   149   148   150   ar
   150   149   151   ar
   151   150   152   ar
   152   151   152   ar
