@<TRIPOS>MOLECULE
./5gal/protein.pdb
 213 208 0 0 0
SMALL
GASTEIGER

@<TRIPOS>ATOM
      1 N           0.8410   48.4970   44.9500 N.3     1  ARG1       -0.1231
      2 CA          2.0730   47.7310   44.8670 C.3     1  ARG1        0.1694
      3 C           3.2320   48.6340   44.4980 C.2     1  ARG1        0.2592
      4 O           3.0260   49.7960   44.1560 O.2     1  ARG1       -0.2718
      5 CB          1.9380   46.6050   43.8420 C.3     1  ARG1        0.0321
      6 CG          1.6820   47.0720   42.4460 C.3     1  ARG1        0.0489
      7 CD          1.5160   45.8950   41.5220 C.3     1  ARG1        0.2205
      8 NE          0.2060   45.2610   41.6800 N.pl3   1  ARG1       -0.0865
      9 CZ         -0.3340   44.4220   40.7900 C.cat   1  ARG1        0.5346
     10 NH1         0.3240   44.1130   39.6720 N.pl3   1  ARG1        0.1354
     11 NH2        -1.5300   43.8800   41.0130 N.pl3   1  ARG1        0.1354
     12 N           4.4520   48.1080   44.6040 N.am    2  PHE2       -0.1962
     13 CA          5.6530   48.8510   44.2380 C.3     2  PHE2        0.1771
     14 C           6.8340   47.9170   43.9140 C.2     2  PHE2        0.2619
     15 O           6.7420   46.6960   44.0650 O.2     2  PHE2       -0.2715
     16 CB          6.0060   49.8860   45.3190 C.3     2  PHE2        0.0574
     17 CG          6.5970   49.3120   46.5700 C.ar    2  PHE2       -0.0200
     18 CD1         7.9760   49.1710   46.7010 C.ar    2  PHE2       -0.0042
     19 CD2         5.7840   48.9790   47.6460 C.ar    2  PHE2       -0.0042
     20 CE1         8.5350   48.7140   47.8880 C.ar    2  PHE2       -0.0003
     21 CE2         6.3330   48.5220   48.8380 C.ar    2  PHE2       -0.0003
     22 CZ          7.7130   48.3900   48.9580 C.ar    2  PHE2       -0.0000
     23 N           7.9350   48.4770   43.4380 N.am    3  HIS3       -0.1973
     24 CA          9.0580   47.6350   43.0830 C.3     3  HIS3        0.1656
     25 C          10.4290   48.3060   43.1820 C.2     3  HIS3        0.2291
     26 O          10.5610   49.5350   43.2530 O.2     3  HIS3       -0.2864
     27 CB          8.8690   47.1330   41.6610 C.3     3  HIS3        0.0771
     28 CG          9.0770   48.2020   40.6430 C.ar    3  HIS3        0.0820
     29 ND1         8.1250   49.1600   40.3700 N.ar    3  HIS3       -0.2267
     30 CD2        10.1590   48.5160   39.8880 C.ar    3  HIS3        0.1154
     31 CE1         8.6130   50.0210   39.4940 C.ar    3  HIS3        0.1986
     32 NE2         9.8450   49.6520   39.1840 N.ar    3  HIS3       -0.2212
     33 N          14.1520   47.7050   41.2160 N.3     1  ASN1       -0.1240
     34 CA         14.8050   46.9910   40.1470 C.3     1  ASN1        0.1653
     35 C          16.2910   47.2530   40.1490 C.2     1  ASN1        0.2266
     36 O          16.7090   48.3790   40.3980 O.2     1  ASN1       -0.2867
     37 CB         14.2470   47.4320   38.7870 C.3     1  ASN1        0.1155
     38 CG         12.8180   46.9750   38.5650 C.2     1  ASN1        0.2627
     39 OD1        12.3340   46.0710   39.2460 O.2     1  ASN1       -0.2716
     40 ND2        12.1300   47.6040   37.6170 N.am    1  ASN1       -0.0877
     41 N          18.9620   47.3110   37.5220 N.3     1  LEU1       -0.1245
     42 CA         19.1210   47.3100   36.0690 C.3     1  LEU1        0.1561
     43 C          20.5610   47.3020   35.6240 C.2     1  LEU1        0.2260
     44 O          21.4430   47.7600   36.3550 O.2     1  LEU1       -0.2867
     45 CB         18.4150   48.5190   35.4590 C.3     1  LEU1        0.0270
     46 CG         16.9780   48.7090   35.9440 C.3     1  LEU1        0.0019
     47 CD2        16.5250   50.1030   35.5780 C.3     1  LEU1        0.0001
     48 CD1        16.0460   47.6580   35.3290 C.3     1  LEU1        0.0001
     49 N          19.1540   52.4700   29.5930 N.3     1  GLU1       -0.1231
     50 CA         18.1930   52.4820   28.4930 C.3     1  GLU1        0.1697
     51 C          16.8320   52.0070   28.9800 C.2     1  GLU1        0.2592
     52 O          16.7510   51.1380   29.8410 O.2     1  GLU1       -0.2718
     53 CB         18.6570   51.5660   27.3480 C.3     1  GLU1        0.0343
     54 CG         20.1130   51.7070   26.9390 C.3     1  GLU1        0.0437
     55 CD         21.0220   50.6920   27.6360 C.2     1  GLU1        0.0504
     56 OE2        20.6510   50.1910   28.7250 O.co2   1  GLU1       -0.5492
     57 OE1        22.1150   50.3990   27.0950 O.co2   1  GLU1       -0.5492
     58 N          15.7610   52.5780   28.4380 N.am    2  GLN2       -0.1966
     59 CA         14.4300   52.1550   28.8400 C.3     2  GLN2        0.1733
     60 C          14.3310   50.6940   28.4400 C.2     2  GLN2        0.2617
     61 O          14.8820   50.2850   27.4200 O.2     2  GLN2       -0.2715
     62 CB         13.3480   52.9700   28.1220 C.3     2  GLN2        0.0408
     63 CG         12.2060   53.4280   29.0360 C.3     2  GLN2        0.0908
     64 CD         11.6090   54.7870   28.6340 C.2     2  GLN2        0.2608
     65 OE1        10.7210   55.3140   29.3150 O.2     2  GLN2       -0.2717
     66 NE2        12.0970   55.3540   27.5300 N.am    2  GLN2       -0.0878
     67 N          13.6410   49.9090   29.2570 N.am    3  GLY3       -0.1940
     68 CA         13.4950   48.4930   28.9690 C.3     3  GLY3        0.2014
     69 C          14.8120   47.7360   28.9890 C.2     3  GLY3        0.2640
     70 O          15.1700   47.0710   28.0210 O.2     3  GLY3       -0.2714
     71 N          15.5400   47.8270   30.0960 N.am    4  SER4       -0.1935
     72 CA         16.8230   47.1360   30.2170 C.3     4  SER4        0.2055
     73 C          16.6750   45.8120   30.9690 C.2     4  SER4        0.2643
     74 O          15.6440   45.5510   31.5960 O.2     4  SER4       -0.2714
     75 CB         17.8370   48.0190   30.9590 C.3     4  SER4        0.2130
     76 OG         18.5610   48.8560   30.0710 O.3     4  SER4       -0.2179
     77 N          17.7030   44.9760   30.8950 N.am    5  ASP5       -0.1959
     78 CA         17.6730   43.7090   31.6000 C.3     5  ASP5        0.1783
     79 C          17.6410   44.0640   33.0770 C.2     5  ASP5        0.2619
     80 O          18.3490   44.9620   33.5090 O.2     5  ASP5       -0.2715
     81 CB         18.9370   42.8890   31.3170 C.3     5  ASP5        0.0728
     82 CG         18.9650   42.3320   29.9180 C.2     5  ASP5        0.0526
     83 OD1        17.9160   42.3850   29.2410 O.co2   5  ASP5       -0.5491
     84 OD2        20.0380   41.8470   29.4980 O.co2   5  ASP5       -0.5491
     85 N          16.8070   43.3750   33.8430 N.am    6  ALA6       -0.1977
     86 CA         16.7290   43.6050   35.2750 C.3     6  ALA6        0.1597
     87 C          17.3360   42.3770   35.9450 C.2     6  ALA6        0.2287
     88 O          16.7510   41.2950   35.8780 O.2     6  ALA6       -0.2864
     89 CB         15.2840   43.7670   35.7050 C.3     6  ALA6        0.0319
     90 N          17.4710   41.9440   38.9180 N.3     1  LEU1       -0.1231
     91 CA         16.5670   41.6810   40.0280 C.3     1  LEU1        0.1693
     92 C          15.3830   42.6230   39.9980 C.2     1  LEU1        0.2592
     93 O          15.5620   43.8220   39.8580 O.2     1  LEU1       -0.2718
     94 CB         17.2910   41.8440   41.3650 C.3     1  LEU1        0.0284
     95 CG         16.3850   41.6090   42.5750 C.3     1  LEU1        0.0019
     96 CD1        16.0430   40.1370   42.7060 C.3     1  LEU1        0.0001
     97 CD2        17.0820   42.0920   43.8110 C.3     1  LEU1        0.0001
     98 N          14.1900   42.0500   40.1140 N.am    2  HIS2       -0.1976
     99 CA         12.9180   42.7640   40.1510 C.3     2  HIS2        0.1652
    100 C          12.2380   42.2690   41.4360 C.2     2  HIS2        0.2291
    101 O          11.8680   41.0900   41.5510 O.2     2  HIS2       -0.2864
    102 CB         12.0570   42.4290   38.9070 C.3     2  HIS2        0.0731
    103 CG         10.6340   42.9110   38.9920 C.2     2  HIS2        0.0652
    104 ND1        10.2860   44.2450   38.9030 N.2     2  HIS2       -0.2310
    105 CD2         9.4760   42.2380   39.2000 C.3     2  HIS2        0.1683
    106 CE1         8.9800   44.3720   39.0560 C.2     2  HIS2        0.1939
    107 NE2         8.4650   43.1700   39.2380 N.2     2  HIS2       -0.2440
    108 N           9.0830   42.9600   43.8540 N.3     1  ASN1       -0.1240
    109 CA          7.7710   43.5820   43.7150 C.3     1  ASN1        0.1653
    110 C           6.6640   43.2980   44.7370 C.2     1  ASN1        0.2266
    111 O           5.8020   42.4680   44.4860 O.2     1  ASN1       -0.2867
    112 CB          7.3060   43.2190   42.2920 C.3     1  ASN1        0.1155
    113 CG          5.9640   43.8150   41.8970 C.2     1  ASN1        0.2627
    114 OD1         5.2550   43.2080   41.0940 O.2     1  ASN1       -0.2716
    115 ND2         5.6210   44.9950   42.4170 N.am    1  ASN1       -0.0877
    116 N           3.2920   43.2640   46.3360 N.3     1  ARG1       -0.1245
    117 CA          1.9740   43.5630   45.7800 C.3     1  ARG1        0.1563
    118 C           0.9400   43.5400   46.8870 C.2     1  ARG1        0.2260
    119 O           0.3650   42.5000   47.1870 O.2     1  ARG1       -0.2867
    120 CB          1.6240   42.5570   44.6850 C.3     1  ARG1        0.0307
    121 CG          2.3490   42.8330   43.3760 C.3     1  ARG1        0.0489
    122 CD          2.1160   41.7300   42.3860 C.3     1  ARG1        0.2205
    123 NE          3.0960   41.7290   41.3010 N.pl3   1  ARG1       -0.0865
    124 CZ          3.1710   40.7890   40.3610 C.cat   1  ARG1        0.5346
    125 NH2         2.3210   39.7640   40.3670 N.pl3   1  ARG1        0.1354
    126 NH1         4.0920   40.8590   39.4140 N.pl3   1  ARG1        0.1354
    127 N           6.6130   39.2840   44.4550 N.3     1  VAL1       -0.1231
    128 CA          7.2890   38.6090   43.3610 C.3     1  VAL1        0.1692
    129 C           8.7410   39.0240   43.1010 C.2     1  VAL1        0.2592
    130 O           9.0740   40.2080   43.0880 O.2     1  VAL1       -0.2718
    131 CB          6.4630   38.8060   42.0740 C.3     1  VAL1        0.0266
    132 CG1         7.1040   38.0950   40.8800 C.3     1  VAL1        0.0020
    133 CG2         5.0490   38.3220   42.3220 C.3     1  VAL1        0.0020
    134 N           9.6070   38.0360   42.9120 N.am    2  PHE2       -0.1962
    135 CA         11.0040   38.2920   42.5840 C.3     2  PHE2        0.1771
    136 C          11.0800   37.8040   41.1400 C.2     2  PHE2        0.2620
    137 O          10.3880   36.8470   40.7730 O.2     2  PHE2       -0.2715
    138 CB         11.9520   37.4650   43.4500 C.3     2  PHE2        0.0574
    139 CG         12.0030   37.8900   44.8850 C.ar    2  PHE2       -0.0200
    140 CD2        10.9120   37.6880   45.7270 C.ar    2  PHE2       -0.0042
    141 CD1        13.1580   38.4600   45.4100 C.ar    2  PHE2       -0.0042
    142 CE2        10.9690   38.0430   47.0720 C.ar    2  PHE2       -0.0003
    143 CE1        13.2260   38.8190   46.7560 C.ar    2  PHE2       -0.0003
    144 CZ         12.1320   38.6100   47.5860 C.ar    2  PHE2       -0.0000
    145 N          11.8880   38.4540   40.3100 N.am    3  ASN3       -0.1958
    146 CA         11.9900   38.0330   38.9220 C.3     3  ASN3        0.1819
    147 C          13.1530   38.6950   38.2000 C.2     3  ASN3        0.2622
    148 O          13.7560   39.6440   38.6910 O.2     3  ASN3       -0.2715
    149 CB         10.6720   38.3300   38.1800 C.3     3  ASN3        0.1195
    150 CG         10.3300   37.2780   37.1160 C.2     3  ASN3        0.2630
    151 OD1        11.1750   36.4620   36.7240 O.2     3  ASN3       -0.2716
    152 ND2         9.0850   37.3030   36.6400 N.am    3  ASN3       -0.0877
    153 N          13.4580   38.1710   37.0220 N.am    4  SER4       -0.1936
    154 CA         14.5270   38.6840   36.1880 C.3     4  SER4        0.2055
    155 C          13.8960   39.1140   34.8730 C.2     4  SER4        0.2642
    156 O          12.7900   38.6930   34.5610 O.2     4  SER4       -0.2714
    157 CB         15.5400   37.5740   35.9210 C.3     4  SER4        0.2130
    158 OG         16.8400   38.0970   35.7180 O.3     4  SER4       -0.2179
    159 N          14.5770   39.9680   34.1180 N.am    5  LYS5       -0.1977
    160 CA         14.0880   40.3820   32.8040 C.3     5  LYS5        0.1596
    161 C          15.3210   40.4400   31.9220 C.2     5  LYS5        0.2287
    162 O          16.2350   41.2200   32.1650 O.2     5  LYS5       -0.2864
    163 CB         13.4000   41.7460   32.8410 C.3     5  LYS5        0.0298
    164 CG         12.8750   42.1840   31.4780 C.3     5  LYS5        0.0038
    165 CD         12.7830   43.7020   31.3420 C.3     5  LYS5        0.0206
    166 CE         11.3360   44.1960   31.4380 C.3     5  LYS5        0.1093
    167 NZ         11.1320   45.4980   30.7410 N.3     5  LYS5       -0.1314
    168 N          14.7600   41.4060   27.0420 N.3     1  GLY1       -0.1210
    169 CA         13.3760   41.8170   26.8570 C.3     1  GLY1        0.1956
    170 C          12.2120   41.0370   27.4590 C.2     1  GLY1        0.2613
    171 O          11.1110   41.5840   27.5730 O.2     1  GLY1       -0.2717
    172 N          12.4180   39.7790   27.8470 N.am    2  SER2       -0.1938
    173 CA         11.3190   38.9810   28.4180 C.3     2  SER2        0.2055
    174 C          11.4990   38.6280   29.8910 C.2     2  SER2        0.2643
    175 O          12.6220   38.4670   30.3760 O.2     2  SER2       -0.2714
    176 CB         11.1230   37.6870   27.6150 C.3     2  SER2        0.2130
    177 OG         12.3730   37.0860   27.3090 O.3     2  SER2       -0.2179
    178 N          10.3790   38.5080   30.5950 N.am    3  TRP3       -0.1959
    179 CA         10.4100   38.1600   32.0070 C.3     3  TRP3        0.1768
    180 C          10.9050   36.7290   32.1660 C.2     3  TRP3        0.2620
    181 O          11.1230   36.0300   31.1750 O.2     3  TRP3       -0.2715
    182 CB          9.0220   38.3070   32.6190 C.3     3  TRP3        0.0553
    183 CG          8.6170   39.7360   32.8140 C.2     3  TRP3       -0.0136
    184 CD1         7.6820   40.4280   32.0960 C.2     3  TRP3        0.0907
    185 CD2         9.1200   40.6490   33.8010 C.3     3  TRP3        0.0819
    186 NE1         7.5690   41.7120   32.5770 N.2     3  TRP3       -0.2482
    187 CE2         8.4380   41.8760   33.6230 C.2     3  TRP3        0.0665
    188 CE3        10.0790   40.5480   34.8220 C.2     3  TRP3       -0.0164
    189 CZ2         8.6870   42.9980   34.4280 C.2     3  TRP3        0.0153
    190 CZ3        10.3250   41.6630   35.6210 C.2     3  TRP3       -0.0038
    191 CH2         9.6290   42.8720   35.4170 C.2     3  TRP3        0.0009
    192 N          11.0890   36.2950   33.4070 N.am    4  GLY4       -0.1954
    193 CA         11.5810   34.9520   33.6390 C.3     4  GLY4        0.1869
    194 C          10.7790   34.1820   34.6620 C.2     4  GLY4        0.2309
    195 O           9.6330   34.5170   34.9470 O.2     4  GLY4       -0.2863
    196 N           9.3550   33.5280   37.8570 N.3     1  GLU1       -0.1245
    197 CA          9.1830   34.2950   39.0710 C.3     1  GLU1        0.1565
    198 C           9.1720   33.4410   40.3250 C.2     1  GLU1        0.2260
    199 O           8.8180   32.2590   40.3110 O.2     1  GLU1       -0.2867
    200 CB          7.9270   35.2020   39.0030 C.3     1  GLU1        0.0329
    201 CG          6.5580   34.5500   38.8360 C.3     1  GLU1        0.0437
    202 CD          5.4980   35.5290   38.3070 C.2     1  GLU1        0.0504
    203 OE1         5.7630   36.2210   37.3000 O.co2   1  GLU1       -0.5492
    204 OE2         4.3980   35.6180   38.8890 O.co2   1  GLU1       -0.5492
    205 N          16.5140   51.3190   40.7500 N.3     1  GLU1       -0.1245
    206 CA         15.3420   52.0730   40.3710 C.3     1  GLU1        0.1565
    207 C          14.2840   51.6640   41.3660 C.2     1  GLU1        0.2260
    208 O          14.0840   50.4770   41.5940 O.2     1  GLU1       -0.2867
    209 CB         14.8830   51.7080   38.9560 C.3     1  GLU1        0.0329
    210 CG         13.4930   52.2520   38.6130 C.3     1  GLU1        0.0437
    211 CD         12.9690   51.8040   37.2480 C.2     1  GLU1        0.0504
    212 OE1        13.5130   50.8370   36.6580 O.co2   1  GLU1       -0.5492
    213 OE2        11.9970   52.4290   36.7680 O.co2   1  GLU1       -0.5492
@<TRIPOS>UNITY_ATOM_ATTR
56 1
charge -1
83 1
charge -1
203 1
charge -1
212 1
charge -1
@<TRIPOS>BOND
     1     1     2    1
     2     2     5    1
     3     2     3    1
     4     3     4    2
     5     3    12   am
     6     5     6    1
     7     6     7    1
     8     7     8    1
     9     8     9    2
    10     9    10    1
    11     9    11    1
    12    12    13    1
    13    13    14    1
    14    13    16    1
    15    14    23   am
    16    14    15    2
    17    16    17    1
    18    17    18   ar
    19    17    19   ar
    20    18    20   ar
    21    19    21   ar
    22    20    22   ar
    23    21    22   ar
    24    23    24    1
    25    24    27    1
    26    24    25    1
    27    25    26    2
    28    27    28    1
    29    28    30   ar
    30    28    29   ar
    31    29    31   ar
    32    30    32   ar
    33    31    32   ar
    34    33    34    1
    35    34    37    1
    36    34    35    1
    37    35    36    2
    38    37    38    1
    39    38    40   am
    40    38    39    2
    41    41    42    1
    42    42    45    1
    43    42    43    1
    44    43    44    2
    45    45    46    1
    46    46    48    1
    47    46    47    1
    48    49    50    1
    49    50    53    1
    50    50    51    1
    51    51    58   am
    52    51    52    2
    53    53    54    1
    54    54    55    1
    55    55    57   ar
    56    55    56   ar
    57    58    59    1
    58    59    62    1
    59    59    60    1
    60    60    61    2
    61    60    67   am
    62    62    63    1
    63    63    64    1
    64    64    66   am
    65    64    65    2
    66    67    68    1
    67    68    69    1
    68    69    70    2
    69    69    71   am
    70    71    72    1
    71    72    75    1
    72    72    73    1
    73    73    77   am
    74    73    74    2
    75    75    76    1
    76    77    78    1
    77    78    81    1
    78    78    79    1
    79    79    80    2
    80    79    85   am
    81    81    82    1
    82    82    83   ar
    83    82    84   ar
    84    85    86    1
    85    86    89    1
    86    86    87    1
    87    87    88    2
    88    90    91    1
    89    91    92    1
    90    91    94    1
    91    92    93    2
    92    92    98   am
    93    94    95    1
    94    95    96    1
    95    95    97    1
    96    98    99    1
    97    99   102    1
    98    99   100    1
    99   100   101    2
   100   102   103    1
   101   103   104    2
   102   103   105    1
   103   104   106    1
   104   105   107    1
   105   106   107    2
   106   108   109    1
   107   109   112    1
   108   109   110    1
   109   110   111    2
   110   112   113    1
   111   113   114    2
   112   113   115   am
   113   116   117    1
   114   117   120    1
   115   117   118    1
   116   118   119    2
   117   120   121    1
   118   121   122    1
   119   122   123    1
   120   123   124    2
   121   124   126    1
   122   124   125    1
   123   127   128    1
   124   128   131    1
   125   128   129    1
   126   129   134   am
   127   129   130    2
   128   131   132    1
   129   131   133    1
   130   134   135    1
   131   135   136    1
   132   135   138    1
   133   136   145   am
   134   136   137    2
   135   138   139    1
   136   139   141   ar
   137   139   140   ar
   138   140   142   ar
   139   141   143   ar
   140   142   144   ar
   141   143   144   ar
   142   145   146    1
   143   146   149    1
   144   146   147    1
   145   147   153   am
   146   147   148    2
   147   149   150    1
   148   150   152   am
   149   150   151    2
   150   153   154    1
   151   154   155    1
   152   154   157    1
   153   155   159   am
   154   155   156    2
   155   157   158    1
   156   159   160    1
   157   160   161    1
   158   160   163    1
   159   161   162    2
   160   163   164    1
   161   164   165    1
   162   165   166    1
   163   166   167    1
   164   168   169    1
   165   169   170    1
   166   170   171    2
   167   170   172   am
   168   172   173    1
   169   173   176    1
   170   173   174    1
   171   174   175    2
   172   174   178   am
   173   176   177    1
   174   178   179    1
   175   179   180    1
   176   179   182    1
   177   180   181    2
   178   180   192   am
   179   182   183    1
   180   183   184    2
   181   183   185    1
   182   184   186    1
   183   185   187    1
   184   185   188    1
   185   186   187    2
   186   187   189    1
   187   188   190    2
   188   189   191    2
   189   190   191    1
   190   192   193    1
   191   193   194    1
   192   194   195    2
   193   196   197    1
   194   197   200    1
   195   197   198    1
   196   198   199    2
   197   200   201    1
   198   201   202    1
   199   202   203   ar
   200   202   204   ar
   201   205   206    1
   202   206   209    1
   203   206   207    1
   204   207   208    2
   205   209   210    1
   206   210   211    1
   207   211   212   ar
   208   211   213   ar
