@<TRIPOS>MOLECULE
./1i7z/protein.pdb
 194 188 0 0 0
SMALL
GASTEIGER

@<TRIPOS>ATOM
      1 N          27.2220    8.2120   25.1930 N.3     1  ALA1       -0.1231
      2 CA         28.1230    7.0940   24.9300 C.3     1  ALA1        0.1694
      3 C          29.3750    7.5990   24.2210 C.2     1  ALA1        0.2593
      4 O          30.4770    7.0880   24.4340 O.2     1  ALA1       -0.2718
      5 CB         27.4250    6.0410   24.0730 C.3     1  ALA1        0.0304
      6 N          29.1870    8.6060   23.3730 N.am    2  SER2       -0.1938
      7 CA         30.2690    9.2120   22.6050 C.3     2  SER2        0.2055
      8 C          30.0770   10.7170   22.5940 C.2     2  SER2        0.2642
      9 O          28.9670   11.2120   22.7230 O.2     2  SER2       -0.2714
     10 CB         30.2820    8.6920   21.1640 C.3     2  SER2        0.2130
     11 OG         30.7560    7.3590   21.1130 O.3     2  SER2       -0.2179
     12 N          31.1690   11.4420   22.4270 N.am    3  LEU3       -0.1977
     13 CA         31.1140   12.8820   22.4450 C.3     3  LEU3        0.1596
     14 C          32.2930   13.4140   21.6660 C.2     3  LEU3        0.2287
     15 O          33.4230   12.9520   21.8320 O.2     3  LEU3       -0.2864
     16 CB         31.1790   13.3680   23.8980 C.3     3  LEU3        0.0297
     17 CG         31.1560   14.8700   24.1830 C.3     3  LEU3        0.0022
     18 CD1        29.8250   15.4560   23.7450 C.3     3  LEU3        0.0001
     19 CD2        31.3600   15.1050   25.6630 C.3     3  LEU3        0.0001
     20 N          40.8340    6.4410   30.4770 N.3     1  GLN1       -0.1231
     21 CA         41.6160    5.3590   29.9040 C.3     1  GLN1        0.1698
     22 C          41.8950    5.6000   28.4390 C.2     1  GLN1        0.2592
     23 O          40.9720    5.7210   27.6380 O.2     1  GLN1       -0.2718
     24 CB         40.9100    4.0060   30.0540 C.3     1  GLN1        0.0381
     25 CG         41.6600    2.8860   29.3330 C.3     1  GLN1        0.0905
     26 CD         41.0620    1.4980   29.5550 C.2     1  GLN1        0.2608
     27 OE1        39.8630    1.2780   29.3610 O.2     1  GLN1       -0.2717
     28 NE2        41.9090    0.5510   29.9510 N.am    1  GLN1       -0.0878
     29 N          43.1730    5.6760   28.0940 N.am    2  LYS2       -0.1966
     30 CA         43.5720    5.8630   26.7110 C.3     2  LYS2        0.1713
     31 C          43.8430    4.4770   26.1100 C.2     2  LYS2        0.2458
     32 O          44.1830    3.5290   26.8250 O.2     2  LYS2       -0.2730
     33 CB         44.8200    6.7490   26.6340 C.3     2  LYS2        0.0311
     34 CG         44.6370    8.1010   27.3280 C.3     2  LYS2        0.0038
     35 CD         45.9040    8.9280   27.2910 C.3     2  LYS2        0.0206
     36 CE         45.9220    9.9910   28.3810 C.3     2  LYS2        0.1093
     37 NZ         44.6790   10.8030   28.4220 N.3     2  LYS2       -0.1314
     38 N          43.6800    4.3420   24.7860 N.am    3  PRO3       -0.2727
     39 CA         43.9070    3.0600   24.1060 C.3     3  PRO3        0.1402
     40 C          45.2340    2.3900   24.4340 C.2     3  PRO3        0.2269
     41 O          46.2930    3.0090   24.3480 O.2     3  PRO3       -0.2865
     42 CB         43.8050    3.4300   22.6220 C.3     3  PRO3        0.0296
     43 CG         44.2110    4.8740   22.5990 C.3     3  PRO3        0.0237
     44 CD         43.4820    5.4220   23.8040 C.3     3  PRO3        0.0939
     45 N          44.1260   17.9910   23.0300 N.3     1  GLU1       -0.1245
     46 CA         44.3080   16.8050   22.2020 C.3     1  GLU1        0.1565
     47 C          44.6320   15.5650   23.0320 C.2     1  GLU1        0.2260
     48 O          44.1250   14.4710   22.7710 O.2     1  GLU1       -0.2867
     49 CB         45.4240   17.0270   21.1800 C.3     1  GLU1        0.0329
     50 CG         45.2580   18.2680   20.3250 C.3     1  GLU1        0.0437
     51 CD         45.9120   19.4880   20.9430 C.2     1  GLU1        0.0504
     52 OE2        45.7580   19.6960   22.1690 O.co2   1  GLU1       -0.5492
     53 OE1        46.5760   20.2400   20.1990 O.co2   1  GLU1       -0.5492
     54 N          41.9180   12.8850   24.3380 N.3     1  ALA1       -0.1231
     55 CA         41.1870   11.9010   23.5380 C.3     1  ALA1        0.1694
     56 C          41.2740   10.6030   24.3470 C.2     1  ALA1        0.2592
     57 O          42.3620   10.0640   24.5350 O.2     1  ALA1       -0.2718
     58 CB         41.8650   11.7190   22.1670 C.3     1  ALA1        0.0304
     59 N          40.1460   10.1100   24.8430 N.am    2  ALA2       -0.1966
     60 CA         40.1630    8.8880   25.6410 C.3     2  ALA2        0.1728
     61 C          38.7580    8.4730   26.0140 C.2     2  ALA2        0.2616
     62 O          37.7950    9.1100   25.6180 O.2     2  ALA2       -0.2715
     63 CB         40.9940    9.1030   26.9200 C.3     2  ALA2        0.0334
     64 N          38.6480    7.3960   26.7810 N.am    3  THR3       -0.1951
     65 CA         37.3450    6.9270   27.2310 C.3     3  THR3        0.1897
     66 C          37.2560    7.2190   28.7280 C.2     3  THR3        0.2313
     67 O          38.2120    6.9930   29.4700 O.2     3  THR3       -0.2863
     68 CB         37.1850    5.4090   26.9830 C.3     3  THR3        0.1794
     69 OG1        37.4300    5.1330   25.6060 O.3     3  THR3       -0.2208
     70 CG2        35.7850    4.9430   27.3270 C.3     3  THR3        0.0378
     71 N          35.2130    6.6580   32.3970 N.3     1  TYR1       -0.1241
     72 CA         34.3120    5.7920   33.1530 C.3     1  TYR1        0.1605
     73 C          34.0610    6.3340   34.5580 C.2     1  TYR1        0.2264
     74 O          34.9820    6.8360   35.1990 O.2     1  TYR1       -0.2867
     75 CB         34.9410    4.3960   33.3140 C.3     1  TYR1        0.0534
     76 CG         35.2230    3.6250   32.0400 C.ar    1  TYR1       -0.0201
     77 CD2        34.2700    2.7570   31.4920 C.ar    1  TYR1       -0.0009
     78 CD1        36.4400    3.7560   31.3860 C.ar    1  TYR1       -0.0009
     79 CE2        34.5320    2.0380   30.3140 C.ar    1  TYR1        0.0417
     80 CE1        36.7100    3.0460   30.2180 C.ar    1  TYR1        0.0417
     81 CZ         35.7500    2.1920   29.6900 C.ar    1  TYR1        0.1957
     82 OH         36.0240    1.5050   28.5360 O.3     1  TYR1       -0.2866
     83 N          33.1840    7.6180   25.2330 N.3     1  LYS1       -0.1231
     84 CA         34.3300    7.8820   24.3550 C.3     1  LYS1        0.1693
     85 C          34.3860    9.3740   24.0420 C.2     1  LYS1        0.2592
     86 O          33.3560    9.9890   23.7830 O.2     1  LYS1       -0.2718
     87 CB         34.2020    7.1230   23.0320 C.3     1  LYS1        0.0285
     88 CG         34.0220    5.6240   23.1430 C.3     1  LYS1        0.0035
     89 CD         34.0820    4.9960   21.7570 C.3     1  LYS1        0.0206
     90 CE         33.8910    3.4910   21.8070 C.3     1  LYS1        0.1093
     91 NZ         33.9960    2.8860   20.4480 N.3     1  LYS1       -0.1314
     92 N          35.5790    9.9550   24.0680 N.am    2  LEU2       -0.1966
     93 CA         35.7300   11.3740   23.7680 C.3     2  LEU2        0.1728
     94 C          36.6830   11.6010   22.6090 C.2     2  LEU2        0.2616
     95 O          37.8570   11.2460   22.6740 O.2     2  LEU2       -0.2715
     96 CB         36.2470   12.1510   24.9810 C.3     2  LEU2        0.0311
     97 CG         36.5950   13.6210   24.6630 C.3     2  LEU2        0.0022
     98 CD1        35.3270   14.3670   24.2780 C.3     2  LEU2        0.0001
     99 CD2        37.2580   14.3030   25.8640 C.3     2  LEU2        0.0001
    100 N          36.1680   12.1970   21.5440 N.am    3  GLU3       -0.1963
    101 CA         36.9820   12.5010   20.3810 C.3     3  GLU3        0.1731
    102 C          37.2010   14.0070   20.3420 C.2     3  GLU3        0.2616
    103 O          36.3050   14.7860   20.6700 O.2     3  GLU3       -0.2715
    104 CB         36.2770   12.0500   19.0990 C.3     3  GLU3        0.0370
    105 CG         36.6180   12.9010   17.8800 C.3     3  GLU3        0.0440
    106 CD         36.0180   12.3650   16.5870 C.2     3  GLU3        0.0504
    107 OE2        34.8390   11.9450   16.5950 O.co2   3  GLU3       -0.5492
    108 OE1        36.7270   12.3770   15.5580 O.co2   3  GLU3       -0.5492
    109 N          38.3930   14.4140   19.9410 N.am    4  ILE4       -0.1977
    110 CA         38.7010   15.8220   19.8520 C.3     4  ILE4        0.1596
    111 C          38.3950   16.2800   18.4420 C.2     4  ILE4        0.2287
    112 O          38.8400   15.6630   17.4730 O.2     4  ILE4       -0.2864
    113 CB         40.1790   16.0940   20.1330 C.3     4  ILE4        0.0276
    114 CG1        40.5990   15.3780   21.4210 C.3     4  ILE4        0.0022
    115 CG2        40.4080   17.5870   20.2400 C.3     4  ILE4        0.0022
    116 CD1        39.6580   15.6180   22.5970 C.3     4  ILE4        0.0001
    117 N          37.7080   11.4760   10.7290 N.3     1  ARG1       -0.1231
    118 CA         37.9980   10.0660   10.5380 C.3     1  ARG1        0.1694
    119 C          37.3700    9.4860    9.2630 C.2     1  ARG1        0.2591
    120 O          37.9820    8.6540    8.5990 O.2     1  ARG1       -0.2718
    121 CB         37.5300    9.2800   11.7630 C.3     1  ARG1        0.0321
    122 CG         38.1350    7.8960   11.8800 C.3     1  ARG1        0.0489
    123 CD         37.4190    7.0900   12.9450 C.3     1  ARG1        0.2205
    124 NE         37.7850    5.6800   12.8810 N.pl3   1  ARG1       -0.0865
    125 CZ         37.0900    4.7060   13.4560 C.cat   1  ARG1        0.5346
    126 NH2        35.9870    4.9930   14.1410 N.pl3   1  ARG1        0.1354
    127 NH1        37.4890    3.4450   13.3420 N.pl3   1  ARG1        0.1354
    128 N          36.1610    9.9280    8.9220 N.am    2  GLU2       -0.1979
    129 CA         35.4810    9.4560    7.7170 C.3     2  GLU2        0.1600
    130 C          36.3940    9.5120    6.4960 C.2     2  GLU2        0.2287
    131 O          36.9130   10.5700    6.1440 O.2     2  GLU2       -0.2864
    132 CB         34.2340   10.2990    7.4360 C.3     2  GLU2        0.0356
    133 CG         33.0660   10.0540    8.3760 C.3     2  GLU2        0.0439
    134 CD         33.4340   10.2140    9.8430 C.2     2  GLU2        0.0504
    135 OE1        33.9530   11.2880   10.2280 O.co2   2  GLU2       -0.5492
    136 OE2        33.1950    9.2590   10.6140 O.co2   2  GLU2       -0.5492
    137 N          42.3610    1.8130   10.9440 N.3     1  VAL1       -0.1231
    138 CA         42.5790    3.2200   11.2160 C.3     1  VAL1        0.1692
    139 C          43.2330    3.3260   12.5800 C.2     1  VAL1        0.2593
    140 O          42.8050    2.6530   13.5140 O.2     1  VAL1       -0.2718
    141 CB         41.2390    3.9720   11.2620 C.3     1  VAL1        0.0266
    142 CG2        41.4810    5.4500   11.4430 C.3     1  VAL1        0.0020
    143 CG1        40.4580    3.7010    9.9940 C.3     1  VAL1        0.0020
    144 N          44.2690    4.1530   12.6890 N.am    2  THR2       -0.1939
    145 CA         44.9440    4.3490   13.9660 C.3     2  THR2        0.2028
    146 C          44.0000    5.1010   14.8710 C.2     2  THR2        0.2642
    147 O          43.0230    5.6940   14.4070 O.2     2  THR2       -0.2714
    148 CB         46.1890    5.2250   13.8590 C.3     2  THR2        0.1808
    149 OG1        45.8090    6.5320   13.4150 O.3     2  THR2       -0.2208
    150 CG2        47.2090    4.6150   12.9170 C.3     2  THR2        0.0379
    151 N          44.3030    5.0680   16.1650 N.am    3  GLU3       -0.1963
    152 CA         43.5230    5.7640   17.1830 C.3     3  GLU3        0.1731
    153 C          43.8270    7.2480   16.9660 C.2     3  GLU3        0.2616
    154 O          44.8680    7.5890   16.4040 O.2     3  GLU3       -0.2715
    155 CB         44.0050    5.3390   18.5700 C.3     3  GLU3        0.0370
    156 CG         42.9280    5.2470   19.6210 C.3     3  GLU3        0.0440
    157 CD         42.1710    3.9390   19.5630 C.2     3  GLU3        0.0504
    158 OE1        42.8270    2.8790   19.4610 O.co2   3  GLU3       -0.5492
    159 OE2        40.9240    3.9660   19.6370 O.co2   3  GLU3       -0.5492
    160 N          42.9320    8.1270   17.4000 N.am    4  GLN4       -0.1963
    161 CA         43.1540    9.5600   17.2270 C.3     4  GLN4        0.1733
    162 C          44.4600    9.9920   17.9030 C.2     4  GLN4        0.2616
    163 O          44.6580    9.7440   19.0870 O.2     4  GLN4       -0.2715
    164 CB         41.9730   10.3460   17.8020 C.3     4  GLN4        0.0408
    165 CG         42.1510   11.8510   17.7060 C.3     4  GLN4        0.0908
    166 CD         40.8730   12.6140   17.9590 C.2     4  GLN4        0.2608
    167 OE1        40.1840   12.3910   18.9560 O.2     4  GLN4       -0.2717
    168 NE2        40.5520   13.5340   17.0560 N.am    4  GLN4       -0.0878
    169 N          45.3420   10.6390   17.1460 N.am    5  ASP5       -0.1959
    170 CA         46.6290   11.0760   17.6740 C.3     5  ASP5        0.1783
    171 C          46.5060   12.0360   18.8660 C.2     5  ASP5        0.2620
    172 O          45.8600   13.0910   18.7740 O.2     5  ASP5       -0.2715
    173 CB         47.4510   11.7410   16.5740 C.3     5  ASP5        0.0728
    174 CG         48.8610   12.0720   17.0320 C.2     5  ASP5        0.0526
    175 OD1        49.7280   11.1710   17.0000 O.co2   5  ASP5       -0.5491
    176 OD2        49.0960   13.2260   17.4390 O.co2   5  ASP5       -0.5491
    177 N          47.1440   11.6660   19.9770 N.am    6  SER6       -0.1950
    178 CA         47.1040   12.4540   21.2110 C.3     6  SER6        0.1924
    179 CB         47.8210   13.7960   21.1050 C.2     6  SER6        0.2314
    180 OG         47.6550   14.6600   21.9660 O.2     6  SER6       -0.2863
    181 C          47.7140   11.6540   22.3670 C.3     6  SER6        0.2116
    182 O          49.1200   11.5370   22.2150 O.3     6  SER6       -0.2180
    183 N          44.0750   11.2950   12.2040 N.3     1  TYR1       -0.1241
    184 CA         44.0160    9.8490   12.0200 C.3     1  TYR1        0.1605
    185 C          44.8740    9.4660   10.8330 C.2     1  TYR1        0.2264
    186 O          45.2150   10.2990    9.9850 O.2     1  TYR1       -0.2867
    187 CB         42.5940    9.3750   11.7240 C.3     1  TYR1        0.0534
    188 CG         41.5890    9.6250   12.8110 C.ar    1  TYR1       -0.0201
    189 CD2        41.4420    8.7350   13.8720 C.ar    1  TYR1       -0.0009
    190 CD1        40.7820   10.7630   12.7850 C.ar    1  TYR1       -0.0009
    191 CE2        40.5120    8.9730   14.8860 C.ar    1  TYR1        0.0417
    192 CE1        39.8510   11.0120   13.7900 C.ar    1  TYR1        0.0417
    193 CZ         39.7220   10.1090   14.8360 C.ar    1  TYR1        0.1957
    194 OH         38.7850   10.3390   15.8120 O.3     1  TYR1       -0.2866
@<TRIPOS>UNITY_ATOM_ATTR
52 1
charge -1
107 1
charge -1
135 1
charge -1
158 1
charge -1
175 1
charge -1
@<TRIPOS>BOND
     1     1     2    1
     2     2     5    1
     3     2     3    1
     4     3     6   am
     5     3     4    2
     6     6     7    1
     7     7    10    1
     8     7     8    1
     9     8    12   am
    10     8     9    2
    11    10    11    1
    12    12    13    1
    13    13    14    1
    14    13    16    1
    15    14    15    2
    16    16    17    1
    17    17    18    1
    18    17    19    1
    19    20    21    1
    20    21    22    1
    21    21    24    1
    22    22    23    2
    23    22    29   am
    24    24    25    1
    25    25    26    1
    26    26    27    2
    27    26    28   am
    28    29    30    1
    29    30    31    1
    30    30    33    1
    31    31    38   am
    32    31    32    2
    33    33    34    1
    34    34    35    1
    35    35    36    1
    36    36    37    1
    37    38    44    1
    38    38    39    1
    39    39    42    1
    40    39    40    1
    41    40    41    2
    42    42    43    1
    43    43    44    1
    44    45    46    1
    45    46    49    1
    46    46    47    1
    47    47    48    2
    48    49    50    1
    49    50    51    1
    50    51    53   ar
    51    51    52   ar
    52    54    55    1
    53    55    58    1
    54    55    56    1
    55    56    57    2
    56    56    59   am
    57    59    60    1
    58    60    61    1
    59    60    63    1
    60    61    62    2
    61    61    64   am
    62    64    65    1
    63    65    68    1
    64    65    66    1
    65    66    67    2
    66    68    69    1
    67    68    70    1
    68    71    72    1
    69    72    75    1
    70    72    73    1
    71    73    74    2
    72    75    76    1
    73    76    78   ar
    74    76    77   ar
    75    77    79   ar
    76    78    80   ar
    77    79    81   ar
    78    80    81   ar
    79    81    82    1
    80    83    84    1
    81    84    87    1
    82    84    85    1
    83    85    86    2
    84    85    92   am
    85    87    88    1
    86    88    89    1
    87    89    90    1
    88    90    91    1
    89    92    93    1
    90    93    94    1
    91    93    96    1
    92    94   100   am
    93    94    95    2
    94    96    97    1
    95    97    98    1
    96    97    99    1
    97   100   101    1
    98   101   104    1
    99   101   102    1
   100   102   109   am
   101   102   103    2
   102   104   105    1
   103   105   106    1
   104   106   108   ar
   105   106   107   ar
   106   109   110    1
   107   110   111    1
   108   110   113    1
   109   111   112    2
   110   113   115    1
   111   113   114    1
   112   114   116    1
   113   117   118    1
   114   118   119    1
   115   118   121    1
   116   119   120    2
   117   119   128   am
   118   121   122    1
   119   122   123    1
   120   123   124    1
   121   124   125    2
   122   125   127    1
   123   125   126    1
   124   128   129    1
   125   129   130    1
   126   129   132    1
   127   130   131    2
   128   132   133    1
   129   133   134    1
   130   134   135   ar
   131   134   136   ar
   132   137   138    1
   133   138   141    1
   134   138   139    1
   135   139   144   am
   136   139   140    2
   137   141   143    1
   138   141   142    1
   139   144   145    1
   140   145   148    1
   141   145   146    1
   142   146   147    2
   143   146   151   am
   144   148   150    1
   145   148   149    1
   146   151   152    1
   147   152   153    1
   148   152   155    1
   149   153   154    2
   150   153   160   am
   151   155   156    1
   152   156   157    1
   153   157   158   ar
   154   157   159   ar
   155   160   161    1
   156   161   164    1
   157   161   162    1
   158   162   169   am
   159   162   163    2
   160   164   165    1
   161   165   166    1
   162   166   168   am
   163   166   167    2
   164   169   170    1
   165   170   173    1
   166   170   171    1
   167   171   172    2
   168   171   177   am
   169   173   174    1
   170   174   175   ar
   171   174   176   ar
   172   177   178    1
   173   178   179    1
   174   178   181    1
   175   179   180    2
   176   181   182    1
   177   183   184    1
   178   184   185    1
   179   184   187    1
   180   185   186    2
   181   187   188    1
   182   188   190   ar
   183   188   189   ar
   184   189   191   ar
   185   190   192   ar
   186   191   193   ar
   187   192   193   ar
   188   193   194    1
