@<TRIPOS>MOLECULE
./148l/protein.pdb
 228 222 0 0 0
SMALL
GASTEIGER

@<TRIPOS>ATOM
      1 N          12.0800   40.2830   41.6760 N.3     1  ASP1       -0.1227
      2 CA         12.5480   41.5490   41.1460 C.3     1  ASP1        0.1748
      3 C          12.0330   42.7630   41.9230 C.2     1  ASP1        0.2595
      4 O          12.7830   43.6740   42.2250 O.2     1  ASP1       -0.2718
      5 CB         12.1440   41.6490   39.6700 C.3     1  ASP1        0.0701
      6 CG         13.0730   40.7730   38.9340 C.2     1  ASP1        0.0523
      7 OD2        14.1350   40.4660   39.3980 O.co2   1  ASP1       -0.5491
      8 OD1        12.5940   40.3450   37.7890 O.co2   1  ASP1       -0.5491
      9 N          10.7510   42.8500   42.2640 N.am    2  GLU2       -0.1979
     10 CA         10.3370   44.0660   42.9700 C.3     2  GLU2        0.1600
     11 C          10.3600   44.1340   44.5020 C.2     2  GLU2        0.2287
     12 O          10.3840   45.2100   45.0810 O.2     2  GLU2       -0.2864
     13 CB          8.9220   44.4990   42.5310 C.3     2  GLU2        0.0356
     14 CG          8.6810   44.5780   41.0160 C.3     2  GLU2        0.0439
     15 CD          9.3990   45.7040   40.3430 C.2     2  GLU2        0.0504
     16 OE2         9.9510   46.5700   41.1730 O.co2   2  GLU2       -0.5492
     17 OE1         9.4640   45.7680   39.1500 O.co2   2  GLU2       -0.5492
     18 N           6.8440   46.3110   49.7850 N.3     1  ARG1       -0.1245
     19 CA          6.9060   47.4470   50.7030 C.3     1  ARG1        0.1563
     20 C           5.5220   47.9840   50.8780 C.2     1  ARG1        0.2260
     21 O           4.8370   48.2490   49.8870 O.2     1  ARG1       -0.2867
     22 CB          7.9760   48.4900   50.3390 C.3     1  ARG1        0.0307
     23 CG          9.3280   47.7720   50.4550 C.3     1  ARG1        0.0489
     24 CD         10.5800   48.5520   50.0950 C.3     1  ARG1        0.2205
     25 NE         10.9120   48.2680   48.7020 N.pl3   1  ARG1       -0.0865
     26 CZ         11.9270   48.7760   48.0370 C.cat   1  ARG1        0.5346
     27 NH2        12.7930   49.6260   48.5950 N.pl3   1  ARG1        0.1354
     28 NH1        12.0530   48.4000   46.7690 N.pl3   1  ARG1        0.1354
     29 N           7.6150   54.2610   48.7880 N.3     1  TYR1       -0.1227
     30 CA          9.0330   54.2730   48.6560 C.3     1  TYR1        0.1736
     31 C           9.4240   54.8300   47.2880 C.2     1  TYR1        0.2595
     32 O           8.6140   54.9270   46.3610 O.2     1  TYR1       -0.2718
     33 CB          9.6160   52.8740   48.9560 C.3     1  TYR1        0.0548
     34 CG          9.2950   51.8240   47.8930 C.ar    1  TYR1       -0.0200
     35 CD2         8.0800   51.1410   47.9870 C.ar    1  TYR1       -0.0009
     36 CD1        10.1350   51.5100   46.8210 C.ar    1  TYR1       -0.0009
     37 CE2         7.7160   50.1660   47.0450 C.ar    1  TYR1        0.0417
     38 CE1         9.7960   50.5430   45.8700 C.ar    1  TYR1        0.0417
     39 CZ          8.5860   49.8690   45.9990 C.ar    1  TYR1        0.1957
     40 OH          8.1590   48.9170   45.0840 O.3     1  TYR1       -0.2866
     41 N          10.6990   55.1870   47.2360 N.am    2  LYS2       -0.1966
     42 CA         11.4420   55.7220   46.1040 C.3     2  LYS2        0.1728
     43 C          12.2640   54.6320   45.4030 C.2     2  LYS2        0.2616
     44 O          12.9910   53.8280   46.0330 O.2     2  LYS2       -0.2715
     45 CB         12.4760   56.7280   46.6050 C.3     2  LYS2        0.0311
     46 CG         12.1250   58.1880   46.3680 C.3     2  LYS2        0.0038
     47 CD         13.3300   59.1110   46.4870 C.3     2  LYS2        0.0206
     48 CE         12.9980   60.5340   46.0820 C.3     2  LYS2        0.1093
     49 NZ         11.5470   60.6660   45.9130 N.3     2  LYS2       -0.1314
     50 N          12.1740   54.6030   44.0870 N.am    3  ASP3       -0.1959
     51 CA         12.9420   53.6360   43.3190 C.3     3  ASP3        0.1783
     52 C          14.3520   54.1440   43.0850 C.2     3  ASP3        0.2621
     53 O          14.7160   55.1770   43.6210 O.2     3  ASP3       -0.2715
     54 CB         12.2800   53.2240   42.0100 C.3     3  ASP3        0.0728
     55 CG         11.9280   54.3660   41.0980 C.2     3  ASP3        0.0526
     56 OD2        12.7430   55.3820   41.2020 O.co2   3  ASP3       -0.5491
     57 OD1        11.0620   54.2550   40.2770 O.co2   3  ASP3       -0.5491
     58 N          15.1620   53.4410   42.2930 N.am    4  THR4       -0.1937
     59 CA         16.5130   53.9270   42.0810 C.3     4  THR4        0.2028
     60 C          16.5680   55.1860   41.2500 C.2     4  THR4        0.2642
     61 O          17.6400   55.7670   41.2030 O.2     4  THR4       -0.2714
     62 CB         17.5450   52.8710   41.6090 C.3     4  THR4        0.1808
     63 OG1        16.9160   52.2030   40.5450 O.3     4  THR4       -0.2208
     64 CG2        17.7920   51.8350   42.7320 C.3     4  THR4        0.0379
     65 N          15.4420   55.6170   40.6450 N.am    5  GLU5       -0.1977
     66 CA         15.3650   56.8220   39.7850 C.3     5  GLU5        0.1600
     67 C          14.7570   57.9990   40.5330 C.2     5  GLU5        0.2287
     68 O          14.6190   59.0860   40.0020 O.2     5  GLU5       -0.2864
     69 CB         14.5160   56.5470   38.5190 C.3     5  GLU5        0.0356
     70 CG         15.2340   55.5770   37.5460 C.3     5  GLU5        0.0439
     71 CD         16.3640   56.2970   36.8570 C.2     5  GLU5        0.0504
     72 OE1        16.2140   57.3510   36.2940 O.co2   5  GLU5       -0.5492
     73 OE2        17.5390   55.7430   36.9570 O.co2   5  GLU5       -0.5492
     74 N          11.6230   57.8300   41.7790 N.3     1  TYR1       -0.1241
     75 CA         10.1730   57.8480   41.6480 C.3     1  TYR1        0.1605
     76 C           9.5580   57.1060   42.7790 C.2     1  TYR1        0.2264
     77 O          10.2200   56.2650   43.3780 O.2     1  TYR1       -0.2867
     78 CB          9.6510   57.2410   40.3480 C.3     1  TYR1        0.0534
     79 CG         10.3650   57.8570   39.1860 C.ar    1  TYR1       -0.0201
     80 CD2        10.5800   59.2380   39.1220 C.ar    1  TYR1       -0.0009
     81 CD1        10.8780   57.0640   38.1600 C.ar    1  TYR1       -0.0009
     82 CE2        11.2770   59.8390   38.0720 C.ar    1  TYR1        0.0417
     83 CE1        11.5240   57.6520   37.0760 C.ar    1  TYR1        0.0417
     84 CZ         11.7200   59.0340   37.0210 C.ar    1  TYR1        0.1957
     85 OH         12.3810   59.6140   35.9470 O.3     1  TYR1       -0.2866
     86 N           7.0610   54.5310   44.4420 N.3     1  GLU1       -0.1245
     87 CA          6.3250   53.3160   44.2160 C.3     1  GLU1        0.1565
     88 C           5.7800   52.7400   45.5470 C.2     1  GLU1        0.2260
     89 O           6.0980   53.2100   46.6200 O.2     1  GLU1       -0.2867
     90 CB          7.2660   52.3000   43.5100 C.3     1  GLU1        0.0329
     91 CG          8.0210   52.7620   42.2290 C.3     1  GLU1        0.0437
     92 CD          8.7720   51.5860   41.6240 C.2     1  GLU1        0.0504
     93 OE2         9.0250   50.6430   42.4870 O.co2   1  GLU1       -0.5492
     94 OE1         9.0680   51.4620   40.4560 O.co2   1  GLU1       -0.5492
     95 N           4.2270   46.0100   45.4360 N.3     1  ILE1       -0.1231
     96 CA          5.1160   45.2630   44.5840 C.3     1  ILE1        0.1692
     97 C           5.3460   45.9810   43.2680 C.2     1  ILE1        0.2593
     98 O           4.7280   45.6360   42.2580 O.2     1  ILE1       -0.2718
     99 CB          4.6000   43.8550   44.2970 C.3     1  ILE1        0.0266
    100 CG1         4.4160   43.1140   45.6350 C.3     1  ILE1        0.0019
    101 CG2         5.6360   43.1060   43.4350 C.3     1  ILE1        0.0020
    102 CD1         3.3040   42.0820   45.5810 C.3     1  ILE1        0.0001
    103 N           6.2200   46.9880   43.2960 N.am    2  GLY2       -0.1942
    104 CA          6.5280   47.7710   42.0960 C.3     2  GLY2        0.2014
    105 C           5.3440   48.5630   41.5710 C.2     2  GLY2        0.2639
    106 O           5.2820   48.8380   40.3680 O.2     2  GLY2       -0.2714
    107 N           4.3730   48.9670   42.4050 N.am    3  HIS3       -0.1959
    108 CA          3.2840   49.7170   41.7950 C.3     3  HIS3        0.1784
    109 C           3.6930   51.1700   41.7200 C.2     3  HIS3        0.2620
    110 O           3.8860   51.7710   42.7890 O.2     3  HIS3       -0.2715
    111 CB          1.9870   49.6570   42.6110 C.3     3  HIS3        0.0745
    112 CG          0.8940   50.5070   42.0430 C.2     3  HIS3        0.0653
    113 ND1         0.1090   50.0390   40.9840 N.2     3  HIS3       -0.2310
    114 CD2         0.4650   51.7540   42.3660 C.3     3  HIS3        0.1683
    115 CE1        -0.7840   50.9860   40.6880 C.2     3  HIS3        0.1939
    116 NE2        -0.5850   52.0490   41.4790 N.2     3  HIS3       -0.2440
    117 N           3.8250   51.7110   40.5050 N.am    4  LEU4       -0.1977
    118 CA          4.2110   53.1130   40.2850 C.3     4  LEU4        0.1596
    119 C           3.1140   54.0790   40.7010 C.2     4  LEU4        0.2287
    120 O           1.9880   53.9530   40.2480 O.2     4  LEU4       -0.2864
    121 CB          4.5750   53.4440   38.8000 C.3     4  LEU4        0.0297
    122 CG          5.0620   54.8830   38.5210 C.3     4  LEU4        0.0022
    123 CD2         6.2680   55.2260   39.3680 C.3     4  LEU4        0.0001
    124 CD1         5.4240   55.0000   37.0250 C.3     4  LEU4        0.0001
    125 N           5.7730   60.1540   39.1390 N.3     1  LYS1       -0.1245
    126 CA          7.1780   60.4410   38.8560 C.3     1  LYS1        0.1561
    127 C           7.5090   61.8580   39.3980 C.2     1  LYS1        0.2260
    128 O           8.6350   62.3210   39.4860 O.2     1  LYS1       -0.2867
    129 CB          7.5060   60.2450   37.3610 C.3     1  LYS1        0.0271
    130 CG          7.4260   58.8160   36.8270 C.3     1  LYS1        0.0035
    131 CD          8.5260   58.4540   35.8230 C.3     1  LYS1        0.0206
    132 CE          8.0330   58.2420   34.4040 C.3     1  LYS1        0.1093
    133 NZ          9.1130   58.1910   33.3970 N.3     1  LYS1       -0.1314
    134 N           7.6520   44.6040   30.2340 N.3     1  VAL1       -0.1231
    135 CA          6.4630   45.4480   30.1090 C.3     1  VAL1        0.1692
    136 C           5.9540   46.0170   31.4040 C.2     1  VAL1        0.2592
    137 O           5.5010   47.1500   31.3940 O.2     1  VAL1       -0.2718
    138 CB          5.3150   44.8690   29.3180 C.3     1  VAL1        0.0266
    139 CG2         4.0490   45.7410   29.3150 C.3     1  VAL1        0.0020
    140 CG1         5.7570   44.4390   27.9230 C.3     1  VAL1        0.0020
    141 N           5.9510   45.2360   32.5020 N.am    2  PHE2       -0.1962
    142 CA          5.4990   45.7190   33.8020 C.3     2  PHE2        0.1771
    143 C           6.4020   46.9010   34.2680 C.2     2  PHE2        0.2619
    144 O           5.9620   47.8520   34.9320 O.2     2  PHE2       -0.2715
    145 CB          5.6280   44.5110   34.7860 C.3     2  PHE2        0.0574
    146 CG          5.2170   44.6270   36.2650 C.ar    2  PHE2       -0.0200
    147 CD2         6.0740   45.0420   37.2870 C.ar    2  PHE2       -0.0042
    148 CD1         3.9200   44.2650   36.6420 C.ar    2  PHE2       -0.0042
    149 CE2         5.6370   45.1080   38.6260 C.ar    2  PHE2       -0.0003
    150 CE1         3.4790   44.3150   37.9600 C.ar    2  PHE2       -0.0003
    151 CZ          4.3290   44.7650   38.9590 C.ar    2  PHE2       -0.0000
    152 N           7.7030   46.8370   33.9460 N.am    3  GLN3       -0.1963
    153 CA          8.7030   47.7910   34.3420 C.3     3  GLN3        0.1733
    154 C           8.8020   49.0290   33.4780 C.2     3  GLN3        0.2616
    155 O           9.2500   50.0670   33.9540 O.2     3  GLN3       -0.2715
    156 CB         10.1300   47.2150   34.3980 C.3     3  GLN3        0.0408
    157 CG         11.0930   48.0130   35.3280 C.3     3  GLN3        0.0908
    158 CD         12.5410   47.5980   35.2510 C.2     3  GLN3        0.2608
    159 OE1        12.8990   46.5760   34.6510 O.2     3  GLN3       -0.2717
    160 NE2        13.3880   48.3670   35.9090 N.am    3  GLN3       -0.0878
    161 N           8.4460   48.8990   32.2040 N.am    4  MET4       -0.1963
    162 CA          8.5780   50.0210   31.2470 C.3     4  MET4        0.1736
    163 C           7.3480   50.4060   30.5040 C.2     4  MET4        0.2617
    164 O           7.3610   51.4180   29.8240 O.2     4  MET4       -0.2715
    165 CB          9.7090   49.7420   30.2130 C.3     4  MET4        0.0427
    166 CG         11.0820   49.6740   30.9150 C.3     4  MET4        0.0599
    167 SD         12.4280   49.2090   29.7820 S.3     4  MET4       -0.1393
    168 CE         12.2600   47.4240   30.0870 C.3     4  MET4        0.0692
    169 N           6.2920   49.6290   30.5820 N.am    5  GLY5       -0.1955
    170 CA          5.0700   49.9460   29.8070 C.3     5  GLY5        0.1869
    171 C           5.0940   49.3990   28.3790 C.2     5  GLY5        0.2309
    172 O           6.1660   49.1150   27.8270 O.2     5  GLY5       -0.2863
    173 N           6.9800   51.6060   26.0510 N.3     1  GLY1       -0.1225
    174 CA          8.4250   51.6020   26.2570 C.3     1  GLY1        0.1811
    175 C           9.0750   50.3350   25.7720 C.2     1  GLY1        0.2280
    176 O          10.1940   50.3390   25.3450 O.2     1  GLY1       -0.2866
    177 N          18.9380   52.1700   27.7800 N.3     1  ARG1       -0.1231
    178 CA         18.9340   53.0090   28.9410 C.3     1  ARG1        0.1694
    179 C          18.5320   52.1190   30.0930 C.2     1  ARG1        0.2592
    180 O          19.1120   52.2680   31.1400 O.2     1  ARG1       -0.2718
    181 CB         18.0310   54.2390   28.7640 C.3     1  ARG1        0.0321
    182 CG         17.9000   55.1330   29.9830 C.3     1  ARG1        0.0489
    183 CD         17.5340   56.5530   29.5580 C.3     1  ARG1        0.2205
    184 NE         16.1770   57.0430   29.7880 N.pl3   1  ARG1       -0.0865
    185 CZ         15.8960   58.0520   30.6340 C.cat   1  ARG1        0.5346
    186 NH2        16.8780   58.6030   31.3300 N.pl3   1  ARG1        0.1354
    187 NH1        14.6730   58.5250   30.8460 N.pl3   1  ARG1        0.1354
    188 N          17.5460   51.1980   29.8460 N.am    2  TRP2       -0.1976
    189 CA         17.0750   50.3010   30.8810 C.3     2  TRP2        0.1637
    190 C          18.2300   49.6240   31.6320 C.2     2  TRP2        0.2290
    191 O          18.3760   49.5950   32.8310 O.2     2  TRP2       -0.2864
    192 CB         16.2970   49.2250   30.1080 C.3     2  TRP2        0.0537
    193 CG         15.9040   47.9980   30.9280 C.2     2  TRP2       -0.0165
    194 CD1        15.3130   47.9440   32.1660 C.3     2  TRP2        0.1477
    195 CD2        16.0010   46.6390   30.4670 C.ar    2  TRP2        0.0113
    196 NE1        15.0920   46.6410   32.5270 N.2     2  TRP2       -0.2659
    197 CE2        15.4690   45.8080   31.4810 C.ar    2  TRP2        0.0758
    198 CE3        16.5300   46.0960   29.2950 C.ar    2  TRP2        0.0009
    199 CZ2        15.4420   44.4190   31.3210 C.ar    2  TRP2        0.0187
    200 CZ3        16.4830   44.7220   29.1490 C.ar    2  TRP2        0.0001
    201 CH2        15.9450   43.9090   30.1490 C.ar    2  TRP2        0.0015
    202 N          20.1830   51.7420   33.7050 N.3     1  GLN1       -0.1231
    203 CA         19.4040   52.2030   34.8660 C.3     1  GLN1        0.1698
    204 C          19.3600   51.1770   35.9560 C.2     1  GLN1        0.2592
    205 O          19.6590   51.4580   37.1350 O.2     1  GLN1       -0.2718
    206 CB         17.9040   52.5440   34.5830 C.3     1  GLN1        0.0381
    207 CG         17.7060   53.7660   33.6280 C.3     1  GLN1        0.0905
    208 CD         16.3790   53.7740   32.8870 C.2     1  GLN1        0.2608
    209 OE1        15.8230   52.6420   32.5460 O.2     1  GLN1       -0.2717
    210 NE2        15.8440   54.8210   32.6080 N.am    1  GLN1       -0.0878
    211 N          18.9330   49.9800   35.5700 N.am    2  THR2       -0.1953
    212 CA         18.7690   48.8650   36.5070 C.3     2  THR2        0.1897
    213 C          19.4970   47.6020   36.0290 C.2     2  THR2        0.2313
    214 O          18.9010   46.5860   35.7120 O.2     2  THR2       -0.2863
    215 CB         17.2720   48.5790   36.8780 C.3     2  THR2        0.1794
    216 OG1        16.5780   47.9870   35.7690 O.3     2  THR2       -0.2208
    217 CG2        16.4540   49.7750   37.4440 C.3     2  THR2        0.0378
    218 N          18.7350   43.8880   37.5560 N.3     1  ARG1       -0.1245
    219 CA         17.4220   43.3950   37.1350 C.3     1  ARG1        0.1563
    220 C          17.4540   43.0730   35.6460 C.2     1  ARG1        0.2260
    221 O          17.0480   42.0060   35.1910 O.2     1  ARG1       -0.2867
    222 CB         16.3250   44.4330   37.4210 C.3     1  ARG1        0.0307
    223 CG         15.1020   44.4580   36.5070 C.3     1  ARG1        0.0489
    224 CD         13.9270   43.8640   37.2620 C.3     1  ARG1        0.2205
    225 NE         12.5160   43.8770   36.7990 N.pl3   1  ARG1       -0.0865
    226 CZ         11.5940   44.5900   37.4900 C.cat   1  ARG1        0.5346
    227 NH2        11.9350   45.3440   38.5340 N.pl3   1  ARG1        0.1354
    228 NH1        10.2900   44.5930   37.1860 N.pl3   1  ARG1        0.1354
@<TRIPOS>UNITY_ATOM_ATTR
7 1
charge -1
16 1
charge -1
56 1
charge -1
72 1
charge -1
93 1
charge -1
@<TRIPOS>BOND
     1     1     2    1
     2     2     5    1
     3     2     3    1
     4     3     4    2
     5     3     9   am
     6     5     6    1
     7     6     8   ar
     8     6     7   ar
     9     9    10    1
    10    10    13    1
    11    10    11    1
    12    11    12    2
    13    13    14    1
    14    14    15    1
    15    15    17   ar
    16    15    16   ar
    17    18    19    1
    18    19    22    1
    19    19    20    1
    20    20    21    2
    21    22    23    1
    22    23    24    1
    23    24    25    1
    24    25    26    2
    25    26    28    1
    26    26    27    1
    27    29    30    1
    28    30    31    1
    29    30    33    1
    30    31    32    2
    31    31    41   am
    32    33    34    1
    33    34    36   ar
    34    34    35   ar
    35    35    37   ar
    36    36    38   ar
    37    37    39   ar
    38    38    39   ar
    39    39    40    1
    40    41    42    1
    41    42    43    1
    42    42    45    1
    43    43    50   am
    44    43    44    2
    45    45    46    1
    46    46    47    1
    47    47    48    1
    48    48    49    1
    49    50    51    1
    50    51    54    1
    51    51    52    1
    52    52    58   am
    53    52    53    2
    54    54    55    1
    55    55    57   ar
    56    55    56   ar
    57    58    59    1
    58    59    60    1
    59    59    62    1
    60    60    65   am
    61    60    61    2
    62    62    63    1
    63    62    64    1
    64    65    66    1
    65    66    69    1
    66    66    67    1
    67    67    68    2
    68    69    70    1
    69    70    71    1
    70    71    72   ar
    71    71    73   ar
    72    74    75    1
    73    75    78    1
    74    75    76    1
    75    76    77    2
    76    78    79    1
    77    79    81   ar
    78    79    80   ar
    79    80    82   ar
    80    81    83   ar
    81    82    84   ar
    82    83    84   ar
    83    84    85    1
    84    86    87    1
    85    87    90    1
    86    87    88    1
    87    88    89    2
    88    90    91    1
    89    91    92    1
    90    92    94   ar
    91    92    93   ar
    92    95    96    1
    93    96    97    1
    94    96    99    1
    95    97    98    2
    96    97   103   am
    97    99   101    1
    98    99   100    1
    99   100   102    1
   100   103   104    1
   101   104   105    1
   102   105   106    2
   103   105   107   am
   104   107   108    1
   105   108   109    1
   106   108   111    1
   107   109   117   am
   108   109   110    2
   109   111   112    1
   110   112   113    2
   111   112   114    1
   112   113   115    1
   113   114   116    1
   114   115   116    2
   115   117   118    1
   116   118   121    1
   117   118   119    1
   118   119   120    2
   119   121   122    1
   120   122   124    1
   121   122   123    1
   122   125   126    1
   123   126   129    1
   124   126   127    1
   125   127   128    2
   126   129   130    1
   127   130   131    1
   128   131   132    1
   129   132   133    1
   130   134   135    1
   131   135   138    1
   132   135   136    1
   133   136   137    2
   134   136   141   am
   135   138   140    1
   136   138   139    1
   137   141   142    1
   138   142   143    1
   139   142   145    1
   140   143   152   am
   141   143   144    2
   142   145   146    1
   143   146   148   ar
   144   146   147   ar
   145   147   149   ar
   146   148   150   ar
   147   149   151   ar
   148   150   151   ar
   149   152   153    1
   150   153   154    1
   151   153   156    1
   152   154   161   am
   153   154   155    2
   154   156   157    1
   155   157   158    1
   156   158   159    2
   157   158   160   am
   158   161   162    1
   159   162   165    1
   160   162   163    1
   161   163   164    2
   162   163   169   am
   163   165   166    1
   164   166   167    1
   165   167   168    1
   166   169   170    1
   167   170   171    1
   168   171   172    2
   169   173   174    1
   170   174   175    1
   171   175   176    2
   172   177   178    1
   173   178   181    1
   174   178   179    1
   175   179   188   am
   176   179   180    2
   177   181   182    1
   178   182   183    1
   179   183   184    1
   180   184   185    2
   181   185   187    1
   182   185   186    1
   183   188   189    1
   184   189   192    1
   185   189   190    1
   186   190   191    2
   187   192   193    1
   188   193   195    2
   189   193   194    1
   190   194   196    1
   191   195   198   ar
   192   195   197   ar
   193   196   197    2
   194   197   199   ar
   195   198   200   ar
   196   199   201   ar
   197   200   201   ar
   198   202   203    1
   199   203   206    1
   200   203   204    1
   201   204   211   am
   202   204   205    2
   203   206   207    1
   204   207   208    1
   205   208   209    2
   206   208   210   am
   207   211   212    1
   208   212   213    1
   209   212   215    1
   210   213   214    2
   211   215   216    1
   212   215   217    1
   213   218   219    1
   214   219   220    1
   215   219   222    1
   216   220   221    2
   217   222   223    1
   218   223   224    1
   219   224   225    1
   220   225   226    2
   221   226   228    1
   222   226   227    1
