@<TRIPOS>MOLECULE
./3cag/protein.pdb
 71 67 0 0 0
SMALL
GASTEIGER

@<TRIPOS>ATOM
      1 N          -8.5390  -14.7670  -13.1680 N.3     1  LEU1       -0.1231
      2 CA         -7.2270  -15.3930  -13.0420 C.3     1  LEU1        0.1678
      3 C          -6.8300  -15.5290  -11.5840 C.2     1  LEU1        0.2434
      4 O          -6.9580  -14.5730  -10.8240 O.2     1  LEU1       -0.2733
      5 CB         -6.1870  -14.5810  -13.7760 C.3     1  LEU1        0.0284
      6 CG         -6.5170  -14.3990  -15.2550 C.3     1  LEU1        0.0019
      7 CD2        -5.4220  -13.5950  -15.8950 C.3     1  LEU1        0.0001
      8 CD1        -6.7050  -15.7540  -15.9380 C.3     1  LEU1        0.0001
      9 N          -6.3770  -16.7320  -11.1870 N.am    2  PRO2       -0.2718
     10 CA         -6.0240  -16.9620   -9.7810 C.3     2  PRO2        0.1535
     11 C          -4.9390  -16.0230   -9.2550 C.2     2  PRO2        0.2598
     12 O          -4.9650  -15.6880   -8.0780 O.2     2  PRO2       -0.2715
     13 CB         -5.5200  -18.4180   -9.7670 C.3     2  PRO2        0.0310
     14 CG         -6.0110  -19.0340  -11.0060 C.3     2  PRO2        0.0237
     15 CD         -6.2210  -17.9500  -12.0130 C.3     2  PRO2        0.0939
     16 N          -3.9830  -15.6120  -10.0870 N.am    3  GLN3       -0.1964
     17 CA         -2.9130  -14.7620   -9.5760 C.3     3  GLN3        0.1733
     18 C          -3.1370  -13.2640   -9.7860 C.2     3  GLN3        0.2616
     19 O          -2.2260  -12.4610   -9.6080 O.2     3  GLN3       -0.2715
     20 CB         -1.5240  -15.2220  -10.0830 C.3     3  GLN3        0.0408
     21 CG         -1.1730  -16.6740   -9.6380 C.3     3  GLN3        0.0908
     22 CD         -1.3040  -16.9210   -8.1160 C.2     3  GLN3        0.2608
     23 OE1        -0.6890  -16.2250   -7.2910 O.2     3  GLN3       -0.2717
     24 NE2        -2.0880  -17.9440   -7.7510 N.am    3  GLN3       -0.0878
     25 N          -4.3650  -12.9120  -10.1470 N.am    4  VAL4       -0.1977
     26 CA         -4.8070  -11.5140  -10.2830 C.3     4  VAL4        0.1596
     27 C          -5.7820  -11.1870   -9.1410 C.2     4  VAL4        0.2287
     28 O          -6.8550  -11.8010   -9.0070 O.2     4  VAL4       -0.2864
     29 CB         -5.4540  -11.2490  -11.6760 C.3     4  VAL4        0.0276
     30 CG2        -6.0760   -9.8440  -11.7480 C.3     4  VAL4        0.0022
     31 CG1        -4.4100  -11.3680  -12.8160 C.3     4  VAL4        0.0022
     32 N           3.1950  -13.9680   -6.4840 N.3     1  THR1       -0.1218
     33 CA          3.3470  -13.5890   -7.9030 C.3     1  THR1        0.1862
     34 C           3.7260  -12.1130   -8.0390 C.2     1  THR1        0.2287
     35 O           3.1460  -11.2530   -7.3640 O.2     1  THR1       -0.2866
     36 CB          2.0560  -13.8420   -8.7350 C.3     1  THR1        0.1770
     37 OG1         1.6160  -15.1820   -8.5680 O.3     1  THR1       -0.2211
     38 CG2         2.2950  -13.6260  -10.2010 C.3     1  THR1        0.0375
     39 N           5.9210  -11.2480  -13.5710 N.3     1  GLN1       -0.1231
     40 CA          5.3620  -12.5310  -13.9580 C.3     1  GLN1        0.1698
     41 C           4.0160  -12.3690  -14.6480 C.2     1  GLN1        0.2592
     42 O           3.7230  -13.0680  -15.6150 O.2     1  GLN1       -0.2718
     43 CB          5.2250  -13.4420  -12.7460 C.3     1  GLN1        0.0381
     44 CG          6.5490  -14.0670  -12.3100 C.3     1  GLN1        0.0905
     45 CD          6.4120  -14.8320  -11.0180 C.2     1  GLN1        0.2608
     46 OE1         6.0370  -14.2700   -9.9850 O.2     1  GLN1       -0.2717
     47 NE2         6.7350  -16.1350  -11.0610 N.am    1  GLN1       -0.0878
     48 N           3.1920  -11.4410  -14.1460 N.am    2  LEU2       -0.1980
     49 CA          1.9030  -11.1830  -14.7860 C.3     2  LEU2        0.1596
     50 C           2.0980  -10.5900  -16.1760 C.2     2  LEU2        0.2287
     51 O           1.4320  -11.0170  -17.1250 O.2     2  LEU2       -0.2864
     52 CB          1.0300  -10.2460  -13.9410 C.3     2  LEU2        0.0297
     53 CG          0.2770  -10.7400  -12.7100 C.3     2  LEU2        0.0022
     54 CD2        -0.6450   -9.6040  -12.2070 C.3     2  LEU2        0.0001
     55 CD1        -0.5400  -12.0170  -13.0060 C.3     2  LEU2        0.0001
     56 N           2.9750  -13.1980  -18.6180 N.3     1  MET1       -0.1245
     57 CA          1.8010  -13.9990  -18.9390 C.3     1  MET1        0.1570
     58 C           0.9090  -13.2980  -19.9720 C.2     1  MET1        0.2261
     59 O           0.4400  -13.9480  -20.9140 O.2     1  MET1       -0.2867
     60 CB          1.0230  -14.3530  -17.6660 C.3     1  MET1        0.0387
     61 CG         -0.2670  -15.1370  -17.8670 C.3     1  MET1        0.0595
     62 SD         -1.7090  -14.1270  -18.2700 S.3     1  MET1       -0.1393
     63 CE         -1.8200  -13.1070  -16.7920 C.3     1  MET1        0.0692
     64 N          -0.0190  -14.8900  -23.9960 N.3     1  LEU1       -0.1245
     65 CA         -1.4030  -15.0100  -24.5110 C.3     1  LEU1        0.1561
     66 C          -1.6960  -14.2210  -25.7900 C.2     1  LEU1        0.2260
     67 O          -2.4070  -14.7160  -26.6720 O.2     1  LEU1       -0.2867
     68 CB         -2.3950  -14.5910  -23.4270 C.3     1  LEU1        0.0270
     69 CG         -3.2070  -15.6720  -22.7180 C.3     1  LEU1        0.0019
     70 CD1        -2.6860  -17.1050  -22.9690 C.3     1  LEU1        0.0001
     71 CD2        -3.2770  -15.3790  -21.2350 C.3     1  LEU1        0.0001
@<TRIPOS>BOND
     1     1     2    1
     2     2     5    1
     3     2     3    1
     4     3     9   am
     5     3     4    2
     6     5     6    1
     7     6     8    1
     8     6     7    1
     9     9    15    1
    10     9    10    1
    11    10    13    1
    12    10    11    1
    13    11    16   am
    14    11    12    2
    15    13    14    1
    16    14    15    1
    17    16    17    1
    18    17    20    1
    19    17    18    1
    20    18    25   am
    21    18    19    2
    22    20    21    1
    23    21    22    1
    24    22    24   am
    25    22    23    2
    26    25    26    1
    27    26    29    1
    28    26    27    1
    29    27    28    2
    30    29    31    1
    31    29    30    1
    32    32    33    1
    33    33    36    1
    34    33    34    1
    35    34    35    2
    36    36    38    1
    37    36    37    1
    38    39    40    1
    39    40    41    1
    40    40    43    1
    41    41    42    2
    42    41    48   am
    43    43    44    1
    44    44    45    1
    45    45    47   am
    46    45    46    2
    47    48    49    1
    48    49    50    1
    49    49    52    1
    50    50    51    2
    51    52    53    1
    52    53    55    1
    53    53    54    1
    54    56    57    1
    55    57    58    1
    56    57    60    1
    57    58    59    2
    58    60    61    1
    59    61    62    1
    60    62    63    1
    61    64    65    1
    62    65    66    1
    63    65    68    1
    64    66    67    2
    65    68    69    1
    66    69    70    1
    67    69    71    1
