@<TRIPOS>MOLECULE
./1yfr/protein.pdb
 315 310 0 0 0
SMALL
GASTEIGER

@<TRIPOS>ATOM
      1 N         137.7910   16.2750   30.7790 N.3     1  ASN1       -0.1225
      2 CA        137.0160   15.8240   31.9200 C.3     1  ASN1        0.1785
      3 C         136.3640   16.9810   32.7010 C.2     1  ASN1        0.2597
      4 O         135.7610   16.7390   33.7570 O.2     1  ASN1       -0.2718
      5 CB        137.9320   15.0180   32.8320 C.3     1  ASN1        0.1169
      6 CG        139.0630   15.8520   33.3680 C.2     1  ASN1        0.2627
      7 OD1       139.6930   16.6260   32.6460 O.2     1  ASN1       -0.2716
      8 ND2       139.3280   15.7060   34.6440 N.am    1  ASN1       -0.0877
      9 N         136.5160   18.2220   32.2260 N.am    2  ALA2       -0.1966
     10 CA        135.9230   19.3710   32.9030 C.3     2  ALA2        0.1728
     11 C         135.9250   20.6160   32.0210 C.2     2  ALA2        0.2617
     12 O         136.5000   20.6350   30.9260 O.2     2  ALA2       -0.2715
     13 CB        136.6380   19.6270   34.1700 C.3     2  ALA2        0.0334
     14 N         135.2320   21.6480   32.4740 N.am    3  GLY3       -0.1940
     15 CA        135.1530   22.8500   31.6710 C.3     3  GLY3        0.2014
     16 C         136.3930   23.7130   31.7370 C.2     3  GLY3        0.2638
     17 O         136.5550   24.6380   30.9380 O.2     3  GLY3       -0.2714
     18 N         137.2720   23.4150   32.6920 N.am    4  MET4       -0.1976
     19 CA        138.5060   24.1820   32.8590 C.3     4  MET4        0.1605
     20 C         139.6940   23.4970   32.1800 C.2     4  MET4        0.2287
     21 O         140.8190   23.9920   32.2080 O.2     4  MET4       -0.2864
     22 CB        138.7960   24.4060   34.3420 C.3     4  MET4        0.0413
     23 CG        139.0480   23.1540   35.1450 C.3     4  MET4        0.0598
     24 SD        140.7570   22.5680   35.1070 S.3     4  MET4       -0.1393
     25 CE        140.5280   20.9150   34.4670 C.3     4  MET4        0.0692
     26 N         132.3200   16.1670   28.5360 N.3     1  CYS1       -0.1235
     27 CA        133.2790   15.4470   29.3830 C.3     1  CYS1        0.1677
     28 C         133.2250   13.9510   29.2530 C.2     1  CYS1        0.2270
     29 O         132.1780   13.3860   28.9590 O.2     1  CYS1       -0.2867
     30 CB        133.0920   15.8240   30.8690 C.3     1  CYS1        0.0956
     31 SG        133.1080   17.6600   31.1230 S.3     1  CYS1       -0.0801
     32 N         134.7560   10.8180   31.6620 N.3     1  ARG1       -0.1245
     33 CA        135.4580   10.3230   32.8320 C.3     1  ARG1        0.1563
     34 C         135.7130    8.8330   32.7010 C.2     1  ARG1        0.2260
     35 O         135.0160    8.0260   33.3020 O.2     1  ARG1       -0.2867
     36 CB        134.6550   10.6270   34.1090 C.3     1  ARG1        0.0307
     37 CG        134.6220   12.1190   34.5210 C.3     1  ARG1        0.0489
     38 CD        133.7470   12.3550   35.7500 C.3     1  ARG1        0.2205
     39 NE        134.1950   11.6090   36.9320 N.pl3   1  ARG1       -0.0865
     40 CZ        135.2170   11.9650   37.7110 C.cat   1  ARG1        0.5346
     41 NH1       135.8970   13.0640   37.4310 N.pl3   1  ARG1        0.1354
     42 NH2       135.5700   11.2210   38.7550 N.pl3   1  ARG1        0.1354
     43 N         140.3280    9.9220   37.3230 N.3     1  HIS1       -0.1241
     44 CA        138.8800   10.1060   37.2960 C.3     1  HIS1        0.1621
     45 C         138.2510    9.0780   36.3520 C.2     1  HIS1        0.2264
     46 O         137.7130    9.4320   35.2810 O.2     1  HIS1       -0.2867
     47 CB        138.5450   11.5300   36.8390 C.3     1  HIS1        0.0745
     48 CG        139.5370   12.1040   35.8690 C.ar    1  HIS1        0.0817
     49 ND1       140.7520   12.6150   36.2680 N.ar    1  HIS1       -0.2268
     50 CD2       139.5070   12.2140   34.5180 C.ar    1  HIS1        0.1154
     51 CE1       141.4300   13.0140   35.2070 C.ar    1  HIS1        0.1986
     52 NE2       140.7000   12.7810   34.1330 N.ar    1  HIS1       -0.2212
     53 N         135.3660    6.5350   35.9450 N.3     1  ASP1       -0.1241
     54 CA        134.0750    6.0540   36.4440 C.3     1  ASP1        0.1616
     55 C         133.5080    4.8420   35.6570 C.2     1  ASP1        0.2264
     56 O         132.5220    4.2150   36.0280 O.2     1  ASP1       -0.2867
     57 CB        133.0750    7.2130   36.4140 C.3     1  ASP1        0.0687
     58 CG        133.0740    8.0110   37.7060 C.2     1  ASP1        0.0522
     59 OD2       133.1750    7.3830   38.7980 O.co2   1  ASP1       -0.5491
     60 OD1       132.9560    9.2550   37.6300 O.co2   1  ASP1       -0.5491
     61 N         123.9600    7.8290   38.9540 N.3     1  ARG1       -0.1231
     62 CA        124.6740    9.0960   38.8800 C.3     1  ARG1        0.1694
     63 C         126.0530    9.0270   38.1950 C.2     1  ARG1        0.2592
     64 O         126.7340   10.0410   38.1120 O.2     1  ARG1       -0.2718
     65 CB        124.8410    9.6770   40.2920 C.3     1  ARG1        0.0321
     66 CG        123.5870    9.6960   41.1270 C.3     1  ARG1        0.0489
     67 CD        122.5090   10.6100   40.5500 C.3     1  ARG1        0.2205
     68 NE        121.4540   10.8460   41.5330 N.pl3   1  ARG1       -0.0865
     69 CZ        120.3290   11.4960   41.2600 C.cat   1  ARG1        0.5346
     70 NH1       120.1180   11.9630   40.0360 N.pl3   1  ARG1        0.1354
     71 NH2       119.4220   11.7000   42.2030 N.pl3   1  ARG1        0.1354
     72 N         126.4560    7.8560   37.7100 N.am    2  HIS2       -0.1962
     73 CA        127.7470    7.7090   37.0700 C.3     2  HIS2        0.1784
     74 C         127.6990    7.4510   35.5610 C.2     2  HIS2        0.2620
     75 O         127.2020    6.4380   35.0840 O.2     2  HIS2       -0.2715
     76 CB        128.5380    6.5970   37.7680 C.3     2  HIS2        0.0745
     77 CG        129.0030    6.9550   39.1470 C.2     2  HIS2        0.0653
     78 ND1       129.7040    8.1120   39.4080 N.2     2  HIS2       -0.2310
     79 CD2       128.8760    6.3190   40.3370 C.3     2  HIS2        0.1683
     80 CE1       129.9870    8.1760   40.6980 C.2     2  HIS2        0.1939
     81 NE2       129.4960    7.0990   41.2840 N.2     2  HIS2       -0.2440
     82 N         128.2660    8.3890   34.8190 N.am    3  HIS3       -0.1959
     83 CA        128.3450    8.3030   33.3690 C.3     3  HIS3        0.1787
     84 C         129.7820    8.3830   32.8890 C.2     3  HIS3        0.2620
     85 O         130.6570    8.8190   33.6170 O.2     3  HIS3       -0.2715
     86 CB        127.5840    9.4650   32.7500 C.3     3  HIS3        0.0785
     87 CG        126.5100   10.0210   33.6290 C.ar    3  HIS3        0.0821
     88 ND1       126.7710   10.5910   34.8600 N.ar    3  HIS3       -0.2267
     89 CD2       125.1680   10.0920   33.4640 C.ar    3  HIS3        0.1154
     90 CE1       125.6390   10.9850   35.4090 C.ar    3  HIS3        0.1986
     91 NE2       124.6490   10.6950   34.5840 N.ar    3  HIS3       -0.2212
     92 N         130.0160    7.9500   31.6600 N.am    4  THR4       -0.1951
     93 CA        131.3340    8.0340   31.0630 C.3     4  THR4        0.1897
     94 C         131.3140    9.4030   30.4210 C.2     4  THR4        0.2313
     95 O         132.1680   10.2550   30.6920 O.2     4  THR4       -0.2863
     96 CB        131.5310    6.9500   29.9610 C.3     4  THR4        0.1794
     97 OG1       130.4800    7.0500   28.9820 O.3     4  THR4       -0.2208
     98 CG2       131.5300    5.5560   30.5980 C.3     4  THR4        0.0378
     99 N         129.4170   12.9480   29.7430 N.3     1  PHE1       -0.1227
    100 CA        128.4550   13.8070   30.4510 C.3     1  PHE1        0.1736
    101 C         128.7340   15.2530   30.1570 C.2     1  PHE1        0.2595
    102 O         129.8370   15.5870   29.7890 O.2     1  PHE1       -0.2718
    103 CB        128.4840   13.5460   31.9620 C.3     1  PHE1        0.0547
    104 CG        129.6040   14.2320   32.6870 C.ar    1  PHE1       -0.0202
    105 CD2       129.4070   15.5010   33.2390 C.ar    1  PHE1       -0.0042
    106 CD1       130.8500   13.6050   32.8500 C.ar    1  PHE1       -0.0042
    107 CE2       130.4350   16.1340   33.9550 C.ar    1  PHE1       -0.0003
    108 CE1       131.8860   14.2310   33.5640 C.ar    1  PHE1       -0.0003
    109 CZ        131.6840   15.4860   34.1110 C.ar    1  PHE1       -0.0000
    110 N         127.7110   16.0870   30.2810 N.am    2  GLU2       -0.1965
    111 CA        127.8270   17.5010   29.9920 C.3     2  GLU2        0.1731
    112 C         128.0680   18.3250   31.2400 C.2     2  GLU2        0.2616
    113 O         127.2020   18.4010   32.1190 O.2     2  GLU2       -0.2715
    114 CB        126.5580   17.9810   29.2630 C.3     2  GLU2        0.0370
    115 CG        126.4460   17.4460   27.8640 C.3     2  GLU2        0.0440
    116 CD        125.0290   17.4780   27.3310 C.2     2  GLU2        0.0504
    117 OE2       124.1750   16.7640   27.9160 O.co2   2  GLU2       -0.5492
    118 OE1       124.7930   18.2100   26.3350 O.co2   2  GLU2       -0.5492
    119 N         129.2290   18.9700   31.3100 N.am    3  MET3       -0.1963
    120 CA        129.5420   19.8190   32.4680 C.3     3  MET3        0.1736
    121 C         129.3270   21.2700   32.0890 C.2     3  MET3        0.2616
    122 O         129.7640   21.7040   31.0060 O.2     3  MET3       -0.2715
    123 CB        130.9910   19.6290   32.8870 C.3     3  MET3        0.0427
    124 CG        131.3940   20.2790   34.1590 C.3     3  MET3        0.0599
    125 SD        133.0990   19.9770   34.6270 S.3     3  MET3       -0.1393
    126 CE        132.9950   18.7510   35.9350 C.3     3  MET3        0.0692
    127 N         128.6040   21.9900   32.9520 N.am    4  LEU4       -0.1977
    128 CA        128.3140   23.4040   32.7450 C.3     4  LEU4        0.1596
    129 C         129.1640   24.1920   33.7350 C.2     4  LEU4        0.2287
    130 O         129.4930   23.6860   34.8110 O.2     4  LEU4       -0.2864
    131 CB        126.8400   23.6910   33.0280 C.3     4  LEU4        0.0297
    132 CG        125.7730   23.0520   32.1250 C.3     4  LEU4        0.0022
    133 CD2       124.4060   23.1360   32.8090 C.3     4  LEU4        0.0001
    134 CD1       125.7510   23.7790   30.7370 C.3     4  LEU4        0.0001
    135 N         133.9810   30.5210   34.3220 N.3     1  PHE1       -0.1241
    136 CA        135.3860   30.5680   34.6410 C.3     1  PHE1        0.1605
    137 C         135.8000   32.0220   34.6810 C.2     1  PHE1        0.2264
    138 O         135.4370   32.7920   33.8010 O.2     1  PHE1       -0.2867
    139 CB        136.1760   29.8290   33.5600 C.3     1  PHE1        0.0534
    140 CG        135.5580   28.5250   33.1410 C.ar    1  PHE1       -0.0203
    141 CD2       135.6390   27.3760   33.9420 C.ar    1  PHE1       -0.0042
    142 CD1       134.8650   28.4520   31.9480 C.ar    1  PHE1       -0.0042
    143 CE2       135.0190   26.1750   33.5460 C.ar    1  PHE1       -0.0003
    144 CE1       134.2430   27.2500   31.5520 C.ar    1  PHE1       -0.0003
    145 CZ        134.3270   26.1180   32.3570 C.ar    1  PHE1       -0.0000
    146 N         138.4100   21.3040   49.1220 N.3     1  PHE1       -0.1227
    147 CA        139.6610   21.8690   48.6650 C.3     1  PHE1        0.1736
    148 C         140.0260   21.1890   47.3420 C.2     1  PHE1        0.2595
    149 O         140.4340   20.0190   47.3060 O.2     1  PHE1       -0.2718
    150 CB        140.7750   21.6510   49.6840 C.3     1  PHE1        0.0547
    151 CG        141.9200   22.6030   49.5220 C.ar    1  PHE1       -0.0202
    152 CD2       141.8540   23.8890   50.0670 C.ar    1  PHE1       -0.0042
    153 CD1       143.0370   22.2510   48.7640 C.ar    1  PHE1       -0.0042
    154 CE2       142.8810   24.8050   49.8600 C.ar    1  PHE1       -0.0003
    155 CE1       144.0780   23.1770   48.5530 C.ar    1  PHE1       -0.0003
    156 CZ        143.9900   24.4480   49.1000 C.ar    1  PHE1       -0.0000
    157 N         139.8770   21.9380   46.2580 N.am    2  TRP2       -0.1962
    158 CA        140.1940   21.4390   44.9380 C.3     2  TRP2        0.1768
    159 C         141.6310   21.7780   44.5400 C.2     2  TRP2        0.2619
    160 O         142.1710   22.8230   44.8940 O.2     2  TRP2       -0.2715
    161 CB        139.2280   22.0530   43.9340 C.3     2  TRP2        0.0551
    162 CG        139.3110   21.4970   42.5500 C.2     2  TRP2       -0.0165
    163 CD1       138.7300   20.3410   42.0780 C.3     2  TRP2        0.1477
    164 CD2       140.0290   22.0670   41.4530 C.ar    2  TRP2        0.0113
    165 NE1       139.0610   20.1580   40.7570 N.2     2  TRP2       -0.2659
    166 CE2       139.8720   21.1900   40.3530 C.ar    2  TRP2        0.0758
    167 CE3       140.8350   23.2110   41.3000 C.ar    2  TRP2        0.0009
    168 CZ2       140.4470   21.4510   39.1020 C.ar    2  TRP2        0.0187
    169 CZ3       141.4110   23.4680   40.0650 C.ar    2  TRP2        0.0001
    170 CH2       141.2290   22.5770   38.9830 C.ar    2  TRP2        0.0015
    171 N         142.2530   20.8830   43.7860 N.am    3  GLN3       -0.1977
    172 CA        143.6210   21.1050   43.3230 C.3     3  GLN3        0.1601
    173 C         143.7620   20.7540   41.8490 C.2     3  GLN3        0.2287
    174 O         143.0660   19.8620   41.3500 O.2     3  GLN3       -0.2864
    175 CB        144.6070   20.2550   44.1320 C.3     3  GLN3        0.0394
    176 CG        144.4230   18.7590   43.9440 C.3     3  GLN3        0.0908
    177 CD        145.4610   17.9440   44.6780 C.2     3  GLN3        0.2608
    178 OE1       145.3720   16.7140   44.7310 O.2     3  GLN3       -0.2717
    179 NE2       146.4590   18.6210   45.2450 N.am    3  GLN3       -0.0878
    180 N         137.0570   25.2570   48.0860 N.3     1  SER1       -0.1217
    181 CA        135.9100   25.1500   47.1980 C.3     1  SER1        0.1889
    182 C         134.5800   25.3010   47.9540 C.2     1  SER1        0.2288
    183 O         134.5610   25.5110   49.1820 O.2     1  SER1       -0.2866
    184 CB        135.9440   23.8010   46.4750 C.3     1  SER1        0.2089
    185 OG        136.2720   22.7420   47.3570 O.3     1  SER1       -0.2183
    186 N         130.3730   23.6930   47.5350 N.3     1  GLU1       -0.1245
    187 CA        129.3680   22.9130   46.8170 C.3     1  GLU1        0.1565
    188 C         127.9380   23.2790   47.1760 C.2     1  GLU1        0.2260
    189 O         127.6550   23.6130   48.3190 O.2     1  GLU1       -0.2867
    190 CB        129.6080   21.4220   47.0450 C.3     1  GLU1        0.0329
    191 CG        130.9620   20.9670   46.5470 C.3     1  GLU1        0.0437
    192 CD        131.0420   19.4380   46.3620 C.2     1  GLU1        0.0504
    193 OE2       131.1220   18.6930   47.3820 O.co2   1  GLU1       -0.5492
    194 OE1       131.0100   19.0070   45.1760 O.co2   1  GLU1       -0.5492
    195 N         124.5610   16.6250   45.0950 N.3     1  GLU1       -0.1231
    196 CA        125.4780   17.6870   44.7060 C.3     1  GLU1        0.1697
    197 C         125.0110   18.1370   43.3450 C.2     1  GLU1        0.2592
    198 O         124.8050   17.3090   42.4770 O.2     1  GLU1       -0.2718
    199 CB        126.9180   17.1700   44.6020 C.3     1  GLU1        0.0343
    200 CG        127.8790   18.1100   43.8870 C.3     1  GLU1        0.0437
    201 CD        129.1160   17.3800   43.3530 C.2     1  GLU1        0.0504
    202 OE1       129.9070   18.0340   42.6370 O.co2   1  GLU1       -0.5492
    203 OE2       129.2950   16.1700   43.6550 O.co2   1  GLU1       -0.5492
    204 N         124.8650   19.4400   43.1430 N.am    2  ILE2       -0.1966
    205 CA        124.3950   19.9370   41.8600 C.3     2  ILE2        0.1727
    206 C         125.3410   20.9440   41.2380 C.2     2  ILE2        0.2616
    207 O         125.3470   21.1230   40.0090 O.2     2  ILE2       -0.2715
    208 CB        123.0090   20.6000   41.9810 C.3     2  ILE2        0.0290
    209 CG1       123.1460   21.9830   42.6290 C.3     2  ILE2        0.0022
    210 CG2       122.0830   19.6980   42.7710 C.3     2  ILE2        0.0023
    211 CD1       121.8790   22.8090   42.6160 C.3     2  ILE2        0.0001
    212 N         126.1230   21.6130   42.0850 N.am    3  TRP3       -0.1960
    213 CA        127.0860   22.5910   41.5970 C.3     3  TRP3        0.1768
    214 C         128.3950   22.5800   42.4070 C.2     3  TRP3        0.2619
    215 O         128.3810   22.5180   43.6550 O.2     3  TRP3       -0.2715
    216 CB        126.4810   23.9910   41.6450 C.3     3  TRP3        0.0553
    217 CG        127.0170   24.9060   40.5920 C.2     3  TRP3       -0.0136
    218 CD1       128.1770   24.7610   39.8920 C.2     3  TRP3        0.0907
    219 CD2       126.4320   26.1340   40.1510 C.3     3  TRP3        0.0819
    220 NE1       128.3530   25.8210   39.0330 N.2     3  TRP3       -0.2482
    221 CE2       127.2850   26.6730   39.1590 C.2     3  TRP3        0.0665
    222 CE3       125.2440   26.8100   40.4730 C.2     3  TRP3       -0.0164
    223 CZ2       127.0130   27.8770   38.5040 C.2     3  TRP3        0.0153
    224 CZ3       124.9620   28.0070   39.8170 C.2     3  TRP3       -0.0038
    225 CH2       125.8420   28.5200   38.8280 C.2     3  TRP3        0.0009
    226 N         129.5240   22.6640   41.7080 N.am    4  ASN4       -0.1972
    227 CA        130.8100   22.6750   42.3900 C.3     4  ASN4        0.1688
    228 C         131.5420   23.9780   42.1100 C.2     4  ASN4        0.2292
    229 O         132.1040   24.1590   41.0380 O.2     4  ASN4       -0.2864
    230 CB        131.6700   21.5060   41.9120 C.3     4  ASN4        0.1181
    231 CG        132.8420   21.1880   42.8600 C.2     4  ASN4        0.2629
    232 OD1       132.6390   20.6810   43.9600 O.2     4  ASN4       -0.2716
    233 ND2       134.0640   21.4730   42.4240 N.am    4  ASN4       -0.0877
    234 N         134.6440   26.0780   42.5120 N.3     1  VAL1       -0.1245
    235 CA        136.0430   25.9570   42.8930 C.3     1  VAL1        0.1561
    236 C         136.7010   27.3320   42.9270 C.2     1  VAL1        0.2260
    237 O         136.4770   28.1720   42.0730 O.2     1  VAL1       -0.2867
    238 CB        136.8050   25.0570   41.9160 C.3     1  VAL1        0.0252
    239 CG2       138.2970   24.9440   42.3680 C.3     1  VAL1        0.0019
    240 CG1       136.1210   23.6970   41.8000 C.3     1  VAL1        0.0019
    241 N         136.3230   28.4600   38.9740 N.3     1  ASP1       -0.1227
    242 CA        136.0090   27.2770   38.1880 C.3     1  ASP1        0.1748
    243 C         134.7800   26.5870   38.7800 C.2     1  ASP1        0.2597
    244 O         134.7670   26.1720   39.9530 O.2     1  ASP1       -0.2718
    245 CB        137.2000   26.2980   38.1840 C.3     1  ASP1        0.0701
    246 CG        136.9660   25.0970   37.2850 C.2     1  ASP1        0.0523
    247 OD2       137.5930   24.0380   37.5290 O.co2   1  ASP1       -0.5491
    248 OD1       136.1620   25.2270   36.3320 O.co2   1  ASP1       -0.5491
    249 N         133.7390   26.4910   37.9610 N.am    2  THR2       -0.1939
    250 CA        132.5140   25.8390   38.3830 C.3     2  THR2        0.2028
    251 C         132.1100   24.6940   37.4620 C.2     2  THR2        0.2643
    252 O         132.3110   24.7670   36.2630 O.2     2  THR2       -0.2714
    253 CB        131.3550   26.8510   38.4870 C.3     2  THR2        0.1808
    254 OG1       131.0020   27.3230   37.1840 O.3     2  THR2       -0.2208
    255 CG2       131.7570   28.0450   39.3680 C.3     2  THR2        0.0379
    256 N         131.5690   23.6200   38.0310 N.am    3  GLY3       -0.1939
    257 CA        131.1360   22.4970   37.2160 C.3     3  GLY3        0.2014
    258 C         129.8070   21.8740   37.6540 C.2     3  GLY3        0.2639
    259 O         129.7690   20.9890   38.5250 O.2     3  GLY3       -0.2714
    260 N         128.7080   22.3160   37.0460 N.am    4  MET4       -0.1963
    261 CA        127.3880   21.7690   37.3510 C.3     4  MET4        0.1736
    262 C         126.9860   20.7070   36.3400 C.2     4  MET4        0.2617
    263 O         126.9200   20.9750   35.1420 O.2     4  MET4       -0.2715
    264 CB        126.3500   22.8680   37.3170 C.3     4  MET4        0.0427
    265 CG        124.9180   22.3800   37.4390 C.3     4  MET4        0.0599
    266 SD        123.8320   23.6220   36.9900 S.3     4  MET4       -0.1393
    267 CE        123.4720   24.4560   38.4540 C.3     4  MET4        0.0692
    268 N         126.7600   19.4870   36.8130 N.am    5  GLY5       -0.1940
    269 CA        126.3460   18.4280   35.9090 C.3     5  GLY5        0.2014
    270 C         124.9810   18.7170   35.2930 C.2     5  GLY5        0.2639
    271 O         123.9990   18.9250   36.0190 O.2     5  GLY5       -0.2714
    272 N         124.9060   18.7200   33.9620 N.am    6  LEU6       -0.1963
    273 CA        123.6500   19.0160   33.2850 C.3     6  LEU6        0.1728
    274 C         122.6480   17.9420   33.6160 C.2     6  LEU6        0.2616
    275 O         121.5990   18.2110   34.1970 O.2     6  LEU6       -0.2715
    276 CB        123.8500   19.0720   31.7730 C.3     6  LEU6        0.0311
    277 CG        122.6470   19.5420   30.9640 C.3     6  LEU6        0.0022
    278 CD2       122.4360   20.9790   31.2450 C.3     6  LEU6        0.0001
    279 CD1       122.8730   19.2730   29.4640 C.3     6  LEU6        0.0001
    280 N         122.9970   16.7160   33.2480 N.am    7  GLU7       -0.1963
    281 CA        122.1530   15.5470   33.4950 C.3     7  GLU7        0.1731
    282 C         121.7750   15.3670   34.9770 C.2     7  GLU7        0.2616
    283 O         120.6720   14.9110   35.3120 O.2     7  GLU7       -0.2715
    284 CB        122.8730   14.2890   33.0050 C.3     7  GLU7        0.0370
    285 CG        123.1420   14.3050   31.5220 C.3     7  GLU7        0.0440
    286 CD        124.3710   13.5290   31.1310 C.2     7  GLU7        0.0504
    287 OE2       124.3970   12.2920   31.3640 O.co2   7  GLU7       -0.5492
    288 OE1       125.3030   14.1640   30.5750 O.co2   7  GLU7       -0.5492
    289 N         122.6830   15.7410   35.8720 N.am    8  ARG8       -0.1963
    290 CA        122.4200   15.5870   37.3010 C.3     8  ARG8        0.1729
    291 C         121.3780   16.5850   37.8420 C.2     8  ARG8        0.2616
    292 O         120.4780   16.2000   38.5940 O.2     8  ARG8       -0.2715
    293 CB        123.7310   15.6990   38.0980 C.3     8  ARG8        0.0348
    294 CG        123.5950   15.2020   39.5470 C.3     8  ARG8        0.0492
    295 CD        124.8890   15.2900   40.3260 C.3     8  ARG8        0.2205
    296 NE        125.6810   14.0690   40.2950 N.pl3   8  ARG8       -0.0865
    297 CZ        126.6740   13.8000   41.1360 C.cat   8  ARG8        0.5346
    298 NH2       127.0370   14.6560   42.0880 N.pl3   8  ARG8        0.1354
    299 NH1       127.2680   12.6280   41.0640 N.pl3   8  ARG8        0.1354
    300 N         121.5140   17.8570   37.4730 N.am    9  ILE9       -0.1977
    301 CA        120.5790   18.8720   37.9300 C.3     9  ILE9        0.1596
    302 C         119.2820   18.7370   37.1670 C.2     9  ILE9        0.2287
    303 O         118.2230   19.1160   37.6600 O.2     9  ILE9       -0.2864
    304 CB        121.1360   20.3060   37.7380 C.3     9  ILE9        0.0276
    305 CG1       120.1370   21.3320   38.2780 C.3     9  ILE9        0.0022
    306 CG2       121.4550   20.5660   36.2890 C.3     9  ILE9        0.0022
    307 CD1       119.9190   21.2760   39.7490 C.3     9  ILE9        0.0001
    308 N         119.5700    9.8650   36.6390 N.3     1  ASN1       -0.1240
    309 CA        120.0160   10.7000   35.5350 C.3     1  ASN1        0.1653
    310 C         119.6410   10.0150   34.2510 C.2     1  ASN1        0.2266
    311 O         119.6960   10.6230   33.1860 O.2     1  ASN1       -0.2867
    312 CB        121.5360   10.9280   35.5740 C.3     1  ASN1        0.1155
    313 CG        121.9810   11.7210   36.7900 C.2     1  ASN1        0.2627
    314 OD1       121.2620   12.6010   37.2480 O.2     1  ASN1       -0.2716
    315 ND2       123.1850   11.4300   37.3010 N.am    1  ASN1       -0.0877
@<TRIPOS>UNITY_ATOM_ATTR
59 1
charge -1
117 1
charge -1
193 1
charge -1
202 1
charge -1
247 1
charge -1
287 1
charge -1
@<TRIPOS>BOND
     1     1     2    1
     2     2     3    1
     3     2     5    1
     4     3     9   am
     5     3     4    2
     6     5     6    1
     7     6     7    2
     8     6     8   am
     9     9    10    1
    10    10    11    1
    11    10    13    1
    12    11    12    2
    13    11    14   am
    14    14    15    1
    15    15    16    1
    16    16    17    2
    17    16    18   am
    18    18    19    1
    19    19    20    1
    20    19    22    1
    21    20    21    2
    22    22    23    1
    23    23    24    1
    24    24    25    1
    25    26    27    1
    26    27    28    1
    27    27    30    1
    28    28    29    2
    29    30    31    1
    30    32    33    1
    31    33    34    1
    32    33    36    1
    33    34    35    2
    34    36    37    1
    35    37    38    1
    36    38    39    1
    37    39    40    2
    38    40    41    1
    39    40    42    1
    40    43    44    1
    41    44    45    1
    42    44    47    1
    43    45    46    2
    44    47    48    1
    45    48    50   ar
    46    48    49   ar
    47    49    51   ar
    48    50    52   ar
    49    51    52   ar
    50    53    54    1
    51    54    55    1
    52    54    57    1
    53    55    56    2
    54    57    58    1
    55    58    60   ar
    56    58    59   ar
    57    61    62    1
    58    62    63    1
    59    62    65    1
    60    63    72   am
    61    63    64    2
    62    65    66    1
    63    66    67    1
    64    67    68    1
    65    68    69    2
    66    69    70    1
    67    69    71    1
    68    72    73    1
    69    73    74    1
    70    73    76    1
    71    74    82   am
    72    74    75    2
    73    76    77    1
    74    77    78    2
    75    77    79    1
    76    78    80    1
    77    79    81    1
    78    80    81    2
    79    82    83    1
    80    83    86    1
    81    83    84    1
    82    84    92   am
    83    84    85    2
    84    86    87    1
    85    87    89   ar
    86    87    88   ar
    87    88    90   ar
    88    89    91   ar
    89    90    91   ar
    90    92    93    1
    91    93    96    1
    92    93    94    1
    93    94    95    2
    94    96    97    1
    95    96    98    1
    96    99   100    1
    97   100   101    1
    98   100   103    1
    99   101   102    2
   100   101   110   am
   101   103   104    1
   102   104   106   ar
   103   104   105   ar
   104   105   107   ar
   105   106   108   ar
   106   107   109   ar
   107   108   109   ar
   108   110   111    1
   109   111   114    1
   110   111   112    1
   111   112   119   am
   112   112   113    2
   113   114   115    1
   114   115   116    1
   115   116   118   ar
   116   116   117   ar
   117   119   120    1
   118   120   121    1
   119   120   123    1
   120   121   122    2
   121   121   127   am
   122   123   124    1
   123   124   125    1
   124   125   126    1
   125   127   128    1
   126   128   131    1
   127   128   129    1
   128   129   130    2
   129   131   132    1
   130   132   134    1
   131   132   133    1
   132   135   136    1
   133   136   139    1
   134   136   137    1
   135   137   138    2
   136   139   140    1
   137   140   142   ar
   138   140   141   ar
   139   141   143   ar
   140   142   144   ar
   141   143   145   ar
   142   144   145   ar
   143   146   147    1
   144   147   148    1
   145   147   150    1
   146   148   157   am
   147   148   149    2
   148   150   151    1
   149   151   153   ar
   150   151   152   ar
   151   152   154   ar
   152   153   155   ar
   153   154   156   ar
   154   155   156   ar
   155   157   158    1
   156   158   161    1
   157   158   159    1
   158   159   171   am
   159   159   160    2
   160   161   162    1
   161   162   164    2
   162   162   163    1
   163   163   165    1
   164   164   166   ar
   165   164   167   ar
   166   165   166    2
   167   166   168   ar
   168   167   169   ar
   169   168   170   ar
   170   169   170   ar
   171   171   172    1
   172   172   173    1
   173   172   175    1
   174   173   174    2
   175   175   176    1
   176   176   177    1
   177   177   178    2
   178   177   179   am
   179   180   181    1
   180   181   184    1
   181   181   182    1
   182   182   183    2
   183   184   185    1
   184   186   187    1
   185   187   190    1
   186   187   188    1
   187   188   189    2
   188   190   191    1
   189   191   192    1
   190   192   194   ar
   191   192   193   ar
   192   195   196    1
   193   196   197    1
   194   196   199    1
   195   197   198    2
   196   197   204   am
   197   199   200    1
   198   200   201    1
   199   201   202   ar
   200   201   203   ar
   201   204   205    1
   202   205   206    1
   203   205   208    1
   204   206   207    2
   205   206   212   am
   206   208   209    1
   207   208   210    1
   208   209   211    1
   209   212   213    1
   210   213   216    1
   211   213   214    1
   212   214   226   am
   213   214   215    2
   214   216   217    1
   215   217   218    2
   216   217   219    1
   217   218   220    1
   218   219   221    1
   219   219   222    1
   220   220   221    2
   221   221   223    1
   222   222   224    2
   223   223   225    2
   224   224   225    1
   225   226   227    1
   226   227   230    1
   227   227   228    1
   228   228   229    2
   229   230   231    1
   230   231   233   am
   231   231   232    2
   232   234   235    1
   233   235   238    1
   234   235   236    1
   235   236   237    2
   236   238   240    1
   237   238   239    1
   238   241   242    1
   239   242   245    1
   240   242   243    1
   241   243   249   am
   242   243   244    2
   243   245   246    1
   244   246   248   ar
   245   246   247   ar
   246   249   250    1
   247   250   251    1
   248   250   253    1
   249   251   252    2
   250   251   256   am
   251   253   254    1
   252   253   255    1
   253   256   257    1
   254   257   258    1
   255   258   260   am
   256   258   259    2
   257   260   261    1
   258   261   262    1
   259   261   264    1
   260   262   263    2
   261   262   268   am
   262   264   265    1
   263   265   266    1
   264   266   267    1
   265   268   269    1
   266   269   270    1
   267   270   272   am
   268   270   271    2
   269   272   273    1
   270   273   276    1
   271   273   274    1
   272   274   280   am
   273   274   275    2
   274   276   277    1
   275   277   279    1
   276   277   278    1
   277   280   281    1
   278   281   284    1
   279   281   282    1
   280   282   283    2
   281   282   289   am
   282   284   285    1
   283   285   286    1
   284   286   288   ar
   285   286   287   ar
   286   289   290    1
   287   290   291    1
   288   290   293    1
   289   291   300   am
   290   291   292    2
   291   293   294    1
   292   294   295    1
   293   295   296    1
   294   296   297    2
   295   297   299    1
   296   297   298    1
   297   300   301    1
   298   301   302    1
   299   301   304    1
   300   302   303    2
   301   304   306    1
   302   304   305    1
   303   305   307    1
   304   308   309    1
   305   309   310    1
   306   309   312    1
   307   310   311    2
   308   312   313    1
   309   313   314    2
   310   313   315   am
