@<TRIPOS>MOLECULE
./2x4o/protein.pdb
 293 288 0 0 0
SMALL
GASTEIGER

@<TRIPOS>ATOM
      1 N          11.4200   11.0520   19.6050 N.3     1  MET1       -0.1245
      2 CA         11.0930    9.8350   20.3360 C.3     1  MET1        0.1570
      3 C          10.1390    9.0070   19.4940 C.2     1  MET1        0.2261
      4 O           9.1300    9.5090   19.0010 O.2     1  MET1       -0.2867
      5 CB         10.4740   10.1360   21.7040 C.3     1  MET1        0.0387
      6 CG         10.1240    8.8710   22.4670 C.3     1  MET1        0.0595
      7 SD          9.7340    9.1210   24.2070 S.3     1  MET1       -0.1393
      8 CE          8.0490    9.7320   24.1000 C.3     1  MET1        0.0692
      9 N           8.2120    5.0300   18.9660 N.3     1  TYR1       -0.1241
     10 CA          7.8600    3.6700   19.3530 C.3     1  TYR1        0.1605
     11 C           7.5120    2.8340   18.1200 C.2     1  TYR1        0.2264
     12 O           6.7470    3.2730   17.2620 O.2     1  TYR1       -0.2867
     13 CB          6.6940    3.6780   20.3470 C.3     1  TYR1        0.0534
     14 CG          7.0760    4.1410   21.7500 C.ar    1  TYR1       -0.0201
     15 CD2         7.6850    3.2740   22.6430 C.ar    1  TYR1       -0.0009
     16 CD1         6.8380    5.4460   22.1670 C.ar    1  TYR1       -0.0009
     17 CE2         8.0370    3.6840   23.9150 C.ar    1  TYR1        0.0417
     18 CE1         7.1910    5.8730   23.4480 C.ar    1  TYR1        0.0417
     19 CZ          7.7810    4.9810   24.3170 C.ar    1  TYR1        0.1957
     20 OH          8.1230    5.3840   25.5910 O.3     1  TYR1       -0.2866
     21 N           6.2020   -1.0000   16.6660 N.3     1  PHE1       -0.1241
     22 CA          5.4130   -2.1450   17.0730 C.3     1  PHE1        0.1605
     23 C           5.2730   -3.1180   15.9200 C.2     1  PHE1        0.2264
     24 O           4.9530   -2.7260   14.8030 O.2     1  PHE1       -0.2867
     25 CB          4.0160   -1.7000   17.5030 C.3     1  PHE1        0.0534
     26 CG          4.0100   -0.7100   18.6240 C.ar    1  PHE1       -0.0203
     27 CD2         4.0310   -1.1370   19.9370 C.ar    1  PHE1       -0.0042
     28 CD1         3.9780    0.6520   18.3630 C.ar    1  PHE1       -0.0042
     29 CE2         4.0200   -0.2300   20.9740 C.ar    1  PHE1       -0.0003
     30 CE1         3.9660    1.5680   19.4010 C.ar    1  PHE1       -0.0003
     31 CZ          3.9890    1.1260   20.7050 C.ar    1  PHE1       -0.0000
     32 N           7.2790   -4.4830   30.2910 N.3     1  MET1       -0.1245
     33 CA          8.1530   -3.5900   29.5460 C.3     1  MET1        0.1570
     34 C           9.5000   -3.5620   30.2870 C.2     1  MET1        0.2261
     35 O           9.5340   -3.4160   31.5120 O.2     1  MET1       -0.2867
     36 CB          7.5400   -2.1880   29.4770 C.3     1  MET1        0.0387
     37 CG          8.3250   -1.2090   28.6500 C.3     1  MET1        0.0595
     38 SD          8.0210   -1.4320   26.8900 S.3     1  MET1       -0.1393
     39 CE          6.7790   -0.1790   26.5820 C.3     1  MET1        0.0692
     40 N           6.5870    3.7760   37.1100 N.3     1  TYR1       -0.1241
     41 CA          6.8770    3.9690   35.6970 C.3     1  TYR1        0.1605
     42 C           6.7270    2.6640   34.9380 C.2     1  TYR1        0.2264
     43 O           6.0330    2.6090   33.9260 O.2     1  TYR1       -0.2867
     44 CB          8.2760    4.5360   35.4740 C.3     1  TYR1        0.0534
     45 CG          8.6210    4.6670   34.0070 C.ar    1  TYR1       -0.0201
     46 CD2         8.3760    5.8480   33.3180 C.ar    1  TYR1       -0.0009
     47 CD1         9.1830    3.6040   33.3070 C.ar    1  TYR1       -0.0009
     48 CE2         8.6820    5.9670   31.9670 C.ar    1  TYR1        0.0417
     49 CE1         9.4910    3.7100   31.9600 C.ar    1  TYR1        0.0417
     50 CZ          9.2410    4.8940   31.2970 C.ar    1  TYR1        0.1957
     51 OH          9.5440    4.9990   29.9630 O.3     1  TYR1       -0.2866
     52 N           3.9950    1.4930   31.9900 N.3     1  GLU1       -0.1245
     53 CA          4.3510    1.1160   30.6180 C.3     1  GLU1        0.1565
     54 C           3.9520   -0.3240   30.3050 C.2     1  GLU1        0.2260
     55 O           3.5090   -0.6140   29.1960 O.2     1  GLU1       -0.2867
     56 CB          5.8450    1.3350   30.3280 C.3     1  GLU1        0.0329
     57 CG          6.3140    2.7630   30.5170 C.3     1  GLU1        0.0437
     58 CD          5.4880    3.7470   29.7210 C.2     1  GLU1        0.0504
     59 OE1         5.6540    3.8320   28.4810 O.co2   1  GLU1       -0.5492
     60 OE2         4.6680    4.4470   30.3380 O.co2   1  GLU1       -0.5492
     61 N           0.2540   -0.4430   29.6700 N.3     1  LYS1       -0.1231
     62 CA         -0.0450    0.1890   28.4010 C.3     1  LYS1        0.1693
     63 C           0.3480   -0.6830   27.2020 C.2     1  LYS1        0.2591
     64 O          -0.4520   -0.8750   26.2860 O.2     1  LYS1       -0.2718
     65 CB          0.6060    1.5780   28.3300 C.3     1  LYS1        0.0285
     66 CG         -0.1440    2.6330   29.1520 C.3     1  LYS1        0.0035
     67 CD          0.3980    4.0460   28.9320 C.3     1  LYS1        0.0206
     68 CE          1.6890    4.2740   29.6980 C.3     1  LYS1        0.1093
     69 NZ          2.4670    5.4600   29.1950 N.3     1  LYS1       -0.1314
     70 N           1.5680   -1.2170   27.2150 N.am    2  VAL2       -0.1980
     71 CA          2.0520   -2.0290   26.1030 C.3     2  VAL2        0.1595
     72 C           1.2390   -3.3110   25.9390 C.2     2  VAL2        0.2287
     73 O           1.1570   -3.8740   24.8420 O.2     2  VAL2       -0.2864
     74 CB          3.5670   -2.3590   26.2330 C.3     2  VAL2        0.0276
     75 CG2         3.8040   -3.4540   27.2630 C.3     2  VAL2        0.0022
     76 CG1         4.1470   -2.7570   24.8640 C.3     2  VAL2        0.0022
     77 N          -2.0270   -3.3360   26.4880 N.3     1  ALA1       -0.1231
     78 CA         -3.2080   -2.8350   25.7990 C.3     1  ALA1        0.1694
     79 C          -2.9080   -2.7580   24.3090 C.2     1  ALA1        0.2592
     80 O          -3.6980   -3.2360   23.4890 O.2     1  ALA1       -0.2718
     81 CB         -3.6170   -1.4770   26.3410 C.3     1  ALA1        0.0304
     82 N          -1.7600   -2.1690   23.9680 N.am    2  HIS2       -0.1976
     83 CA         -1.2760   -2.1430   22.5830 C.3     2  HIS2        0.1656
     84 C          -1.2820   -3.5470   21.9760 C.2     2  HIS2        0.2291
     85 O          -1.7540   -3.7490   20.8600 O.2     2  HIS2       -0.2864
     86 CB          0.1530   -1.5920   22.5000 C.3     2  HIS2        0.0771
     87 CG          0.2520   -0.1000   22.6060 C.ar    2  HIS2        0.0820
     88 ND1        -0.3260    0.6180   23.6280 N.ar    2  HIS2       -0.2267
     89 CD2         0.9050    0.8030   21.8320 C.ar    2  HIS2        0.1154
     90 CE1        -0.0550    1.9040   23.4700 C.ar    2  HIS2        0.1986
     91 NE2         0.6920    2.0410   22.3900 N.ar    2  HIS2       -0.2212
     92 N          -4.7580   -4.8630   21.3080 N.3     1  THR1       -0.1203
     93 CA         -5.3180   -4.0910   20.2050 C.3     1  THR1        0.1994
     94 C          -4.8420   -4.6350   18.8680 C.2     1  THR1        0.2617
     95 O          -5.6110   -4.7330   17.9180 O.2     1  THR1       -0.2717
     96 CB         -4.9090   -2.6070   20.2800 C.3     1  THR1        0.1784
     97 OG1        -5.7060   -1.9330   21.2590 O.3     1  THR1       -0.2211
     98 CG2        -5.1320   -1.9490   18.9420 C.3     1  THR1        0.0376
     99 N          -3.5610   -4.9800   18.7990 N.am    2  HIS2       -0.1975
    100 CA         -2.9770   -5.5400   17.5850 C.3     2  HIS2        0.1652
    101 C          -3.5110   -6.9370   17.2750 C.2     2  HIS2        0.2291
    102 O          -3.6050   -7.3310   16.1130 O.2     2  HIS2       -0.2864
    103 CB         -1.4520   -5.5690   17.6960 C.3     2  HIS2        0.0731
    104 CG         -0.8090   -4.2440   17.4340 C.2     2  HIS2        0.0652
    105 ND1         0.1090   -4.0490   16.4260 N.2     2  HIS2       -0.2310
    106 CD2        -0.9710   -3.0410   18.0340 C.3     2  HIS2        0.1683
    107 CE1         0.4950   -2.7860   16.4240 C.2     2  HIS2        0.1939
    108 NE2        -0.1470   -2.1520   17.3890 N.2     2  HIS2       -0.2440
    109 N          -6.6160   -6.2440   15.5430 N.3     1  ASP1       -0.1241
    110 CA         -6.2690   -5.7030   14.2340 C.3     1  ASP1        0.1616
    111 C          -6.0410   -6.8120   13.2190 C.2     1  ASP1        0.2264
    112 O          -6.5160   -6.7350   12.0910 O.2     1  ASP1       -0.2867
    113 CB         -5.0090   -4.8560   14.3250 C.3     1  ASP1        0.0687
    114 CG         -5.2550   -3.5230   14.9810 C.2     1  ASP1        0.0522
    115 OD1        -6.4370   -3.1170   15.0740 O.co2   1  ASP1       -0.5491
    116 OD2        -4.2620   -2.8780   15.3910 O.co2   1  ASP1       -0.5491
    117 N           3.3630   -0.7210   13.4090 N.3     1  ARG1       -0.1245
    118 CA          2.8690    0.5760   13.8370 C.3     1  ARG1        0.1563
    119 C           4.0430    1.3950   14.3680 C.2     1  ARG1        0.2260
    120 O           4.8810    0.8900   15.1150 O.2     1  ARG1       -0.2867
    121 CB          1.8110    0.3900   14.9220 C.3     1  ARG1        0.0307
    122 CG          1.2840    1.6760   15.5520 C.3     1  ARG1        0.0489
    123 CD          0.4720    1.3380   16.8040 C.3     1  ARG1        0.2205
    124 NE         -0.4760    2.3840   17.1780 N.pl3   1  ARG1       -0.0865
    125 CZ         -1.1900    2.3750   18.3030 C.cat   1  ARG1        0.5346
    126 NH2        -1.0560    1.3780   19.1730 N.pl3   1  ARG1        0.1354
    127 NH1        -2.0400    3.3620   18.5600 N.pl3   1  ARG1        0.1354
    128 N           4.8480    5.3630   16.0600 N.3     1  TYR1       -0.1241
    129 CA          4.4630    6.7280   16.3630 C.3     1  TYR1        0.1605
    130 C           5.5470    7.4240   17.1540 C.2     1  TYR1        0.2264
    131 O           6.4120    6.7730   17.7230 O.2     1  TYR1       -0.2867
    132 CB          3.0900    6.8150   17.0470 C.3     1  TYR1        0.0534
    133 CG          2.9340    6.1010   18.3750 C.ar    1  TYR1       -0.0201
    134 CD2         3.4620    6.6400   19.5460 C.ar    1  TYR1       -0.0009
    135 CD1         2.2080    4.9170   18.4650 C.ar    1  TYR1       -0.0009
    136 CE2         3.3060    6.0030   20.7660 C.ar    1  TYR1        0.0417
    137 CE1         2.0340    4.2770   19.6780 C.ar    1  TYR1        0.0417
    138 CZ          2.5900    4.8230   20.8270 C.ar    1  TYR1        0.1957
    139 OH          2.4210    4.1850   22.0350 O.3     1  TYR1       -0.2866
    140 N           3.8220   11.9200   14.3650 N.3     1  TYR1       -0.1227
    141 CA          3.4680   10.9070   13.3790 C.3     1  TYR1        0.1736
    142 C           2.8910    9.6530   14.0380 C.2     1  TYR1        0.2595
    143 O           3.2350    9.3080   15.1710 O.2     1  TYR1       -0.2718
    144 CB          4.6780   10.5640   12.4990 C.3     1  TYR1        0.0548
    145 CG          5.9920   10.6670   13.2380 C.ar    1  TYR1       -0.0200
    146 CD2         6.4780    9.5990   13.9700 C.ar    1  TYR1       -0.0009
    147 CD1         6.7340   11.8420   13.2190 C.ar    1  TYR1       -0.0009
    148 CE2         7.6710    9.6880   14.6590 C.ar    1  TYR1        0.0417
    149 CE1         7.9280   11.9400   13.9050 C.ar    1  TYR1        0.0417
    150 CZ          8.3900   10.8560   14.6260 C.ar    1  TYR1        0.1957
    151 OH          9.5730   10.9330   15.3210 O.3     1  TYR1       -0.2866
    152 N           2.0060    8.9860   13.3060 N.am    2  HIS2       -0.1976
    153 CA          1.2990    7.8170   13.7840 C.3     2  HIS2        0.1652
    154 C           0.7980    7.0750   12.5560 C.2     2  HIS2        0.2291
    155 O          -0.2120    7.4540   11.9670 O.2     2  HIS2       -0.2864
    156 CB          0.1300    8.2150   14.6840 C.3     2  HIS2        0.0731
    157 CG         -0.6700    7.0490   15.1740 C.2     2  HIS2        0.0652
    158 ND1        -1.7110    6.5050   14.4560 N.2     2  HIS2       -0.2310
    159 CD2        -0.5680    6.3110   16.3040 C.3     2  HIS2        0.1683
    160 CE1        -2.2220    5.4870   15.1250 C.2     2  HIS2        0.1939
    161 NE2        -1.5440    5.3460   16.2490 N.2     2  HIS2       -0.2440
    162 N           0.6340    3.0840   10.1550 N.3     1  TYR1       -0.1241
    163 CA          0.5280    1.6250   10.1510 C.3     1  TYR1        0.1605
    164 C           0.9270    1.0880    8.7990 C.2     1  TYR1        0.2264
    165 O           0.7240    1.7450    7.7720 O.2     1  TYR1       -0.2867
    166 CB         -0.9200    1.1670   10.3760 C.3     1  TYR1        0.0534
    167 CG         -1.4130    1.2380   11.7980 C.ar    1  TYR1       -0.0201
    168 CD2        -1.5500    0.0860   12.5730 C.ar    1  TYR1       -0.0009
    169 CD1        -1.7610    2.4580   12.3620 C.ar    1  TYR1       -0.0009
    170 CE2        -2.0130    0.1540   13.8720 C.ar    1  TYR1        0.0417
    171 CE1        -2.2190    2.5380   13.6560 C.ar    1  TYR1        0.0417
    172 CZ         -2.3440    1.3910   14.4110 C.ar    1  TYR1        0.1957
    173 OH         -2.8030    1.5080   15.7050 O.3     1  TYR1       -0.2866
    174 N          -5.9980   11.9560    7.7880 N.3     1  TRP1       -0.1241
    175 CA         -5.4610   10.6230    7.5780 C.3     1  TRP1        0.1602
    176 C          -5.1660   10.3630    6.1090 C.2     1  TRP1        0.2264
    177 O          -5.8420   10.8990    5.2270 O.2     1  TRP1       -0.2867
    178 CB         -6.4400    9.5800    8.1130 C.3     1  TRP1        0.0513
    179 CG         -6.6170    9.6800    9.5910 C.2     1  TRP1       -0.0140
    180 CD1        -7.6310   10.3060   10.2560 C.2     1  TRP1        0.0907
    181 CD2        -5.7360    9.1600   10.5950 C.3     1  TRP1        0.0819
    182 NE1        -7.4420   10.1970   11.6100 N.2     1  TRP1       -0.2482
    183 CE2        -6.2870    9.5000   11.8450 C.2     1  TRP1        0.0665
    184 CE3        -4.5380    8.4350   10.5570 C.2     1  TRP1       -0.0164
    185 CZ2        -5.6830    9.1390   13.0480 C.2     1  TRP1        0.0153
    186 CZ3        -3.9400    8.0790   11.7490 C.2     1  TRP1       -0.0038
    187 CH2        -4.5110    8.4320   12.9800 C.2     1  TRP1        0.0009
    188 N         -13.7320    5.3020   10.2490 N.3     1  LYS1       -0.1231
    189 C         -13.1790    5.8480   12.5770 C.2     1  LYS1        0.2592
    190 O         -13.8060    6.3620   13.5020 O.2     1  LYS1       -0.2718
    191 CA        -13.8570    4.8560   11.6240 C.3     1  LYS1        0.1693
    192 CB        -13.2420    3.4600   11.7610 C.3     1  LYS1        0.0285
    193 CG        -13.4980    2.7590   13.0850 C.3     1  LYS1        0.0035
    194 CD        -12.8120    1.4000   13.1080 C.3     1  LYS1        0.0206
    195 CE        -12.5780    0.9280   14.5330 C.3     1  LYS1        0.1093
    196 NZ        -12.0360    2.0220   15.3870 N.3     1  LYS1       -0.1314
    197 N         -11.9020    6.1280   12.3370 N.am    2  TRP2       -0.1976
    198 CA        -11.1530    7.0210   13.2180 C.3     2  TRP2        0.1637
    199 C         -11.6320    8.4680   13.1900 C.2     2  TRP2        0.2290
    200 O         -11.4810    9.1950   14.1720 O.2     2  TRP2       -0.2864
    201 CB         -9.6500    6.9500   12.9340 C.3     2  TRP2        0.0537
    202 CG         -9.0550    5.6470   13.3270 C.2     2  TRP2       -0.0165
    203 CD1        -9.6580    4.6600   14.0450 C.3     2  TRP2        0.1477
    204 CD2        -7.7270    5.1900   13.0520 C.ar    2  TRP2        0.0113
    205 NE1        -8.7940    3.6070   14.2230 N.2     2  TRP2       -0.2659
    206 CE2        -7.6010    3.9080   13.6240 C.ar    2  TRP2        0.0758
    207 CE3        -6.6360    5.7360   12.3700 C.ar    2  TRP2        0.0009
    208 CZ2        -6.4250    3.1620   13.5370 C.ar    2  TRP2        0.0187
    209 CZ3        -5.4660    4.9910   12.2840 C.ar    2  TRP2        0.0001
    210 CH2        -5.3730    3.7190   12.8670 C.ar    2  TRP2        0.0015
    211 N         -10.1220   10.3180   16.7270 N.3     1  VAL1       -0.1245
    212 CA         -8.8940    9.6620   17.1560 C.3     1  VAL1        0.1561
    213 C          -7.6890   10.5720   16.9550 C.2     1  VAL1        0.2260
    214 O          -6.7480   10.5600   17.7500 O.2     1  VAL1       -0.2867
    215 CB         -8.6600    8.3630   16.3730 C.3     1  VAL1        0.0252
    216 CG2        -7.2970    7.7720   16.7070 C.3     1  VAL1        0.0019
    217 CG1        -9.7660    7.3710   16.6550 C.3     1  VAL1        0.0019
    218 N          -7.1770   13.0130   19.9320 N.3     1  GLN1       -0.1231
    219 CA         -6.5670   12.4070   21.1090 C.3     1  GLN1        0.1698
    220 C          -5.0760   12.1440   20.9060 C.2     1  GLN1        0.2592
    221 O          -4.2710   12.3250   21.8220 O.2     1  GLN1       -0.2718
    222 CB         -7.2840   11.1090   21.4650 C.3     1  GLN1        0.0381
    223 CG         -8.7380   11.3030   21.8620 C.3     1  GLN1        0.0905
    224 CD         -9.4870    9.9930   21.9760 C.2     1  GLN1        0.2608
    225 OE1        -9.9340    9.6120   23.0590 O.2     1  GLN1       -0.2717
    226 NE2        -9.6130    9.2860   20.8580 N.am    1  GLN1       -0.0878
    227 N          -4.7150   11.7140   19.7040 N.am    2  LEU2       -0.1980
    228 CA         -3.3230   11.4270   19.3890 C.3     2  LEU2        0.1596
    229 C          -2.5160   12.7210   19.3310 C.2     2  LEU2        0.2287
    230 O          -1.3570   12.7610   19.7510 O.2     2  LEU2       -0.2864
    231 CB         -3.2130   10.6700   18.0650 C.3     2  LEU2        0.0297
    232 CG         -3.7580    9.2420   18.0470 C.3     2  LEU2        0.0022
    233 CD1        -3.8150    8.7120   16.6210 C.3     2  LEU2        0.0001
    234 CD2        -2.9170    8.3230   18.9330 C.3     2  LEU2        0.0001
    235 N          -1.4880   13.6390   22.7420 N.3     1  TYR1       -0.1227
    236 CA         -0.3710   12.8050   23.1910 C.3     1  TYR1        0.1736
    237 C           0.9560   13.2410   22.5530 C.2     1  TYR1        0.2595
    238 O           1.9670   13.4130   23.2330 O.2     1  TYR1       -0.2718
    239 CB         -0.6310   11.3290   22.8830 C.3     1  TYR1        0.0548
    240 CG          0.6250   10.4880   22.9550 C.ar    1  TYR1       -0.0200
    241 CD2         1.1600   10.1030   24.1820 C.ar    1  TYR1       -0.0009
    242 CD1         1.2870   10.0940   21.8010 C.ar    1  TYR1       -0.0009
    243 CE2         2.3230    9.3350   24.2590 C.ar    1  TYR1        0.0417
    244 CE1         2.4480    9.3230   21.8650 C.ar    1  TYR1        0.0417
    245 CZ          2.9620    8.9500   23.0970 C.ar    1  TYR1        0.1957
    246 OH          4.1130    8.1880   23.1550 O.3     1  TYR1       -0.2866
    247 N           0.9290   13.4300   21.2410 N.am    2  LEU2       -0.1980
    248 CA          2.1230   13.7400   20.4630 C.3     2  LEU2        0.1596
    249 C           2.7230   15.1090   20.7940 C.2     2  LEU2        0.2287
    250 O           3.9430   15.2650   20.8090 O.2     2  LEU2       -0.2864
    251 CB          1.8160   13.6240   18.9700 C.3     2  LEU2        0.0297
    252 CG          1.3520   12.2250   18.5430 C.3     2  LEU2        0.0022
    253 CD1         0.7480   12.2180   17.1370 C.3     2  LEU2        0.0001
    254 CD2         2.4890   11.1990   18.6680 C.3     2  LEU2        0.0001
    255 N           2.2950   14.6570   26.0950 N.3     1  THR1       -0.1203
    256 CA          3.0250   13.5580   26.7260 C.3     1  THR1        0.1994
    257 C           4.3190   13.1680   26.0000 C.2     1  THR1        0.2618
    258 O           5.3450   12.9200   26.6330 O.2     1  THR1       -0.2717
    259 CB          2.1240   12.3170   26.8780 C.3     1  THR1        0.1784
    260 OG1         0.9710   12.6650   27.6540 O.3     1  THR1       -0.2211
    261 CG2         2.8750   11.1810   27.5690 C.3     1  THR1        0.0376
    262 N           4.2780   13.1250   24.6740 N.am    2  CYS2       -0.1969
    263 CA          5.4430   12.6890   23.9040 C.3     2  CYS2        0.1712
    264 C           6.6410   13.6190   24.0770 C.2     2  CYS2        0.2296
    265 O           7.7230   13.1760   24.4550 O.2     2  CYS2       -0.2864
    266 CB          5.0930   12.5350   22.4280 C.3     2  CYS2        0.0983
    267 SG          6.3060   11.6140   21.4880 S.3     2  CYS2       -0.0798
    268 N           7.9100   13.8300   27.8740 N.3     1  TRP1       -0.1241
    269 CA          8.7230   12.7000   28.2790 C.3     1  TRP1        0.1602
    270 C          10.0200   12.5610   27.4560 C.2     1  TRP1        0.2264
    271 O          11.0350   12.1040   27.9790 O.2     1  TRP1       -0.2867
    272 CB          7.8760   11.4240   28.3830 C.3     1  TRP1        0.0513
    273 CG          7.0680   11.4810   29.6390 C.2     1  TRP1       -0.0140
    274 CD1         5.8330   12.0360   29.7930 C.2     1  TRP1        0.0907
    275 CD2         7.4760   11.0490   30.9450 C.3     1  TRP1        0.0819
    276 NE1         5.4310   11.9440   31.1040 N.2     1  TRP1       -0.2482
    277 CE2         6.4250   11.3470   31.8310 C.2     1  TRP1        0.0665
    278 CE3         8.6230   10.4240   31.4450 C.2     1  TRP1       -0.0164
    279 CZ2         6.4860   11.0440   33.1860 C.2     1  TRP1        0.0153
    280 CZ3         8.6810   10.1280   32.7880 C.2     1  TRP1       -0.0038
    281 CH2         7.6180   10.4340   33.6440 C.2     1  TRP1        0.0009
    282 N          13.6400   12.2610   29.3380 N.3     1  TYR1       -0.1241
    283 CA         14.6690   11.2840   28.9470 C.3     1  TYR1        0.1605
    284 C          15.9760   11.9540   28.5360 C.2     1  TYR1        0.2264
    285 O          17.0500   11.5040   28.9210 O.2     1  TYR1       -0.2867
    286 CB         14.1770   10.3510   27.8370 C.3     1  TYR1        0.0534
    287 CG         12.9160    9.6150   28.1950 C.ar    1  TYR1       -0.0201
    288 CD2        12.6710    9.2190   29.5060 C.ar    1  TYR1       -0.0009
    289 CD1        11.9660    9.3100   27.2280 C.ar    1  TYR1       -0.0009
    290 CE2        11.5050    8.5420   29.8370 C.ar    1  TYR1        0.0417
    291 CE1        10.8070    8.6390   27.5450 C.ar    1  TYR1        0.0417
    292 CZ         10.5770    8.2560   28.8500 C.ar    1  TYR1        0.1957
    293 OH          9.4110    7.5860   29.1680 O.3     1  TYR1       -0.2866
@<TRIPOS>UNITY_ATOM_ATTR
59 1
charge -1
115 1
charge -1
@<TRIPOS>BOND
     1     1     2    1
     2     2     3    1
     3     2     5    1
     4     3     4    2
     5     5     6    1
     6     6     7    1
     7     7     8    1
     8     9    10    1
     9    10    11    1
    10    10    13    1
    11    11    12    2
    12    13    14    1
    13    14    16   ar
    14    14    15   ar
    15    15    17   ar
    16    16    18   ar
    17    17    19   ar
    18    18    19   ar
    19    19    20    1
    20    21    22    1
    21    22    23    1
    22    22    25    1
    23    23    24    2
    24    25    26    1
    25    26    28   ar
    26    26    27   ar
    27    27    29   ar
    28    28    30   ar
    29    29    31   ar
    30    30    31   ar
    31    32    33    1
    32    33    36    1
    33    33    34    1
    34    34    35    2
    35    36    37    1
    36    37    38    1
    37    38    39    1
    38    40    41    1
    39    41    42    1
    40    41    44    1
    41    42    43    2
    42    44    45    1
    43    45    47   ar
    44    45    46   ar
    45    46    48   ar
    46    47    49   ar
    47    48    50   ar
    48    49    50   ar
    49    50    51    1
    50    52    53    1
    51    53    54    1
    52    53    56    1
    53    54    55    2
    54    56    57    1
    55    57    58    1
    56    58    59   ar
    57    58    60   ar
    58    61    62    1
    59    62    63    1
    60    62    65    1
    61    63    64    2
    62    63    70   am
    63    65    66    1
    64    66    67    1
    65    67    68    1
    66    68    69    1
    67    70    71    1
    68    71    72    1
    69    71    74    1
    70    72    73    2
    71    74    76    1
    72    74    75    1
    73    77    78    1
    74    78    79    1
    75    78    81    1
    76    79    80    2
    77    79    82   am
    78    82    83    1
    79    83    84    1
    80    83    86    1
    81    84    85    2
    82    86    87    1
    83    87    89   ar
    84    87    88   ar
    85    88    90   ar
    86    89    91   ar
    87    90    91   ar
    88    92    93    1
    89    93    94    1
    90    93    96    1
    91    94    95    2
    92    94    99   am
    93    96    98    1
    94    96    97    1
    95    99   100    1
    96   100   101    1
    97   100   103    1
    98   101   102    2
    99   103   104    1
   100   104   105    2
   101   104   106    1
   102   105   107    1
   103   106   108    1
   104   107   108    2
   105   109   110    1
   106   110   111    1
   107   110   113    1
   108   111   112    2
   109   113   114    1
   110   114   115   ar
   111   114   116   ar
   112   117   118    1
   113   118   119    1
   114   118   121    1
   115   119   120    2
   116   121   122    1
   117   122   123    1
   118   123   124    1
   119   124   125    2
   120   125   127    1
   121   125   126    1
   122   128   129    1
   123   129   132    1
   124   129   130    1
   125   130   131    2
   126   132   133    1
   127   133   135   ar
   128   133   134   ar
   129   134   136   ar
   130   135   137   ar
   131   136   138   ar
   132   137   138   ar
   133   138   139    1
   134   140   141    1
   135   141   144    1
   136   141   142    1
   137   142   152   am
   138   142   143    2
   139   144   145    1
   140   145   147   ar
   141   145   146   ar
   142   146   148   ar
   143   147   149   ar
   144   148   150   ar
   145   149   150   ar
   146   150   151    1
   147   152   153    1
   148   153   154    1
   149   153   156    1
   150   154   155    2
   151   156   157    1
   152   157   158    2
   153   157   159    1
   154   158   160    1
   155   159   161    1
   156   160   161    2
   157   162   163    1
   158   163   164    1
   159   163   166    1
   160   164   165    2
   161   166   167    1
   162   167   169   ar
   163   167   168   ar
   164   168   170   ar
   165   169   171   ar
   166   170   172   ar
   167   171   172   ar
   168   172   173    1
   169   174   175    1
   170   175   176    1
   171   175   178    1
   172   176   177    2
   173   178   179    1
   174   179   180    2
   175   179   181    1
   176   180   182    1
   177   181   184    1
   178   181   183    1
   179   182   183    2
   180   183   185    1
   181   184   186    2
   182   185   187    2
   183   186   187    1
   184   188   191    1
   185   189   191    1
   186   189   197   am
   187   189   190    2
   188   191   192    1
   189   192   193    1
   190   193   194    1
   191   194   195    1
   192   195   196    1
   193   197   198    1
   194   198   201    1
   195   198   199    1
   196   199   200    2
   197   201   202    1
   198   202   204    2
   199   202   203    1
   200   203   205    1
   201   204   207   ar
   202   204   206   ar
   203   205   206    2
   204   206   208   ar
   205   207   209   ar
   206   208   210   ar
   207   209   210   ar
   208   211   212    1
   209   212   215    1
   210   212   213    1
   211   213   214    2
   212   215   217    1
   213   215   216    1
   214   218   219    1
   215   219   220    1
   216   219   222    1
   217   220   227   am
   218   220   221    2
   219   222   223    1
   220   223   224    1
   221   224   226   am
   222   224   225    2
   223   227   228    1
   224   228   231    1
   225   228   229    1
   226   229   230    2
   227   231   232    1
   228   232   233    1
   229   232   234    1
   230   235   236    1
   231   236   237    1
   232   236   239    1
   233   237   247   am
   234   237   238    2
   235   239   240    1
   236   240   242   ar
   237   240   241   ar
   238   241   243   ar
   239   242   244   ar
   240   243   245   ar
   241   244   245   ar
   242   245   246    1
   243   247   248    1
   244   248   251    1
   245   248   249    1
   246   249   250    2
   247   251   252    1
   248   252   253    1
   249   252   254    1
   250   255   256    1
   251   256   257    1
   252   256   259    1
   253   257   262   am
   254   257   258    2
   255   259   261    1
   256   259   260    1
   257   262   263    1
   258   263   266    1
   259   263   264    1
   260   264   265    2
   261   266   267    1
   262   268   269    1
   263   269   270    1
   264   269   272    1
   265   270   271    2
   266   272   273    1
   267   273   274    2
   268   273   275    1
   269   274   276    1
   270   275   278    1
   271   275   277    1
   272   276   277    2
   273   277   279    1
   274   278   280    2
   275   279   281    2
   276   280   281    1
   277   282   283    1
   278   283   286    1
   279   283   284    1
   280   284   285    2
   281   286   287    1
   282   287   289   ar
   283   287   288   ar
   284   288   290   ar
   285   289   291   ar
   286   290   292   ar
   287   291   292   ar
   288   292   293    1
