@<TRIPOS>MOLECULE
./2ifb/ligand.pdb
 18 17 0 0 0
SMALL
GASTEIGER

@<TRIPOS>ATOM
      1  CA        23.2060   10.2700   14.8950 C.3     1  PLM1        0.0000
      2  CB        23.8190   11.6650   14.8740 C.3     1  PLM1        0.0000
      3  CG        29.5550   13.5990   12.9420 C.3     1  PLM1        0.0000
      4  CD        26.0980   12.7170   14.3500 C.3     1  PLM1        0.0000
      5  CE        27.0700   13.1150   13.2420 C.3     1  PLM1        0.0000
      6  C1        18.8030    5.4620    7.6090 C.2     1  PLM1        0.0503
      7  O1        17.9020    4.6540    7.7630 O.co2   1  PLM1       -0.5492
      8  C2        20.2170    5.2060    8.1100 C.3     1  PLM1        0.0417
      9  O2        18.6630    6.6120    6.9800 O.co2   1  PLM1       -0.5492
     10  C3        20.2340    4.9100    9.5940 C.3     1  PLM1        0.0059
     11  C4        20.2980    6.1910   10.4240 C.3     1  PLM1        0.0004
     12  C5        19.7850    5.9060   11.8170 C.3     1  PLM1        0.0000
     13  C6        20.7240    6.4750   12.8570 C.3     1  PLM1        0.0000
     14  C7        21.1350    7.9030   12.5690 C.3     1  PLM1        0.0000
     15  C8        21.8350    8.4720   13.7990 C.3     1  PLM1        0.0000
     16  C9        22.4270    9.8610   13.6440 C.3     1  PLM1        0.0000
     17  CC        24.9500   11.8350   13.8770 C.3     1  PLM1        0.0000
     18  CF        28.4970   12.6550   13.5070 C.3     1  PLM1        0.0000
@<TRIPOS>UNITY_ATOM_ATTR
7 1
charge -1
@<TRIPOS>BOND
     1     1     2    1
     2     1    16    1
     3     2    17    1
     4     3    18    1
     5     4     5    1
     6     4    17    1
     7     5    18    1
     8     6     7   ar
     9     6     8    1
    10     6     9   ar
    11     8    10    1
    12    10    11    1
    13    11    12    1
    14    12    13    1
    15    13    14    1
    16    14    15    1
    17    15    16    1
