@<TRIPOS>MOLECULE
./3m4e/ligand.pdb
 77 84 0 0 0
SMALL
GASTEIGER

@<TRIPOS>ATOM
      1  C11       32.5990   38.1790   27.2870 C.3   663  BCD663      0.2695
      2  C21       32.8430   37.8750   28.8120 C.3   663  BCD663      0.2404
      3  O21       34.1440   38.3660   29.2010 O.3   663  BCD663     -0.2149
      4  C31       32.7100   36.3600   29.0720 C.3   663  BCD663      0.2167
      5  O31       32.9100   36.0770   30.4720 O.3   663  BCD663     -0.2175
      6  C41       31.3390   35.9320   28.6410 C.3   663  BCD663      0.1804
      7  O41       31.2390   34.5350   28.8700 O.3   663  BCD663     -0.3257
      8  C51       31.1140   36.2160   27.1470 C.3   663  BCD663      0.1803
      9  O51       31.2850   37.6800   26.9050 O.3   663  BCD663     -0.3257
     10  C61       29.7260   35.8640   26.6590 C.3   663  BCD663      0.2141
     11  O61       29.6430   36.1730   25.2650 O.3   663  BCD663     -0.2176
     12  C12       30.1770   34.0000   29.6160 C.3   663  BCD663      0.2695
     13  C22       30.7140   33.1540   30.8130 C.3   663  BCD663      0.2404
     14  O22       31.5010   34.0110   31.6500 O.3   663  BCD663     -0.2149
     15  C32       31.4830   31.9650   30.2230 C.3   663  BCD663      0.2167
     16  O32       31.9740   31.1700   31.3160 O.3   663  BCD663     -0.2175
     17  C42       30.5490   31.1130   29.3450 C.3   663  BCD663      0.1804
     18  O42       31.3510   30.0580   28.8090 O.3   663  BCD663     -0.3257
     19  C52       29.8500   32.0920   28.3030 C.3   663  BCD663      0.1803
     20  O52       29.3950   33.1450   28.7740 O.3   663  BCD663     -0.3257
     21  C62       28.8820   31.3000   27.4470 C.3   663  BCD663      0.2141
     22  O62       29.4360   31.4310   26.1490 O.3   663  BCD663     -0.2176
     23  C13       30.9510   28.7140   28.8000 C.3   663  BCD663      0.2695
     24  C23       32.1080   27.8350   29.3270 C.3   663  BCD663      0.2404
     25  O23       32.4770   28.2550   30.6710 O.3   663  BCD663     -0.2149
     26  C33       33.3040   27.9080   28.3710 C.3   663  BCD663      0.2167
     27  O33       34.3620   27.0790   28.8820 O.3   663  BCD663     -0.2175
     28  C43       32.8490   27.4610   26.9960 C.3   663  BCD663      0.1804
     29  O43       33.9470   27.5240   26.1030 O.3   663  BCD663     -0.3257
     30  C53       31.7000   28.3950   26.5100 C.3   663  BCD663      0.1803
     31  O53       30.6210   28.3270   27.4480 O.3   663  BCD663     -0.3257
     32  C63       31.1610   27.9760   25.1200 C.3   663  BCD663      0.2141
     33  O63       30.5430   26.7700   25.0310 O.3   663  BCD663     -0.2176
     34  C14       34.3710   26.3520   25.3920 C.3   663  BCD663      0.2695
     35  C24       35.9230   26.1470   25.6860 C.3   663  BCD663      0.2404
     36  O24       36.1520   25.9890   27.0680 O.3   663  BCD663     -0.2149
     37  C34       36.6580   27.3660   25.1250 C.3   663  BCD663      0.2167
     38  O34       38.0570   27.2550   25.3740 O.3   663  BCD663     -0.2175
     39  C44       36.3850   27.4640   23.6390 C.3   663  BCD663      0.1804
     40  O44       37.0500   28.6460   23.1740 O.3   663  BCD663     -0.3257
     41  C54       34.8780   27.5730   23.3500 C.3   663  BCD663      0.1803
     42  O54       34.1390   26.5400   24.0080 O.3   663  BCD663     -0.3257
     43  C64       34.6040   27.4140   21.8120 C.3   663  BCD663      0.2141
     44  O64       33.2110   27.5340   21.6260 O.3   663  BCD663     -0.2176
     45  C15       37.9260   28.5490   22.0710 C.3   663  BCD663      0.2695
     46  C25       39.2780   29.1460   22.4700 C.3   663  BCD663      0.2404
     47  O25       39.8380   28.4690   23.6030 O.3   663  BCD663     -0.2149
     48  C35       39.0890   30.6510   22.7820 C.3   663  BCD663      0.2167
     49  O35       40.3450   31.2470   23.1440 O.3   663  BCD663     -0.2175
     50  C45       38.5210   31.3260   21.5500 C.3   663  BCD663      0.1804
     51  O45       38.3490   32.7030   21.9680 O.3   663  BCD663     -0.3257
     52  C55       37.1500   30.6760   21.1600 C.3   663  BCD663      0.1803
     53  O55       37.3550   29.2480   20.9730 O.3   663  BCD663     -0.3257
     54  C65       36.5830   31.2500   19.9160 C.3   663  BCD663      0.2141
     55  O65       35.4640   32.0570   20.1390 O.3   663  BCD663     -0.2176
     56  C16       38.7990   33.7820   21.1090 C.3   663  BCD663      0.2695
     57  C26       39.6210   34.7070   21.9750 C.3   663  BCD663      0.2404
     58  O26       40.6350   33.9320   22.6390 O.3   663  BCD663     -0.2149
     59  C36       38.7490   35.4150   23.0400 C.3   663  BCD663      0.2167
     60  O36       39.5650   36.4770   23.6340 O.3   663  BCD663     -0.2175
     61  C46       37.5720   36.0180   22.4250 C.3   663  BCD663      0.1804
     62  O46       36.7550   36.5500   23.5160 O.3   663  BCD663     -0.3257
     63  C56       36.7330   34.9900   21.6380 C.3   663  BCD663      0.1803
     64  O56       37.6040   34.4330   20.6030 O.3   663  BCD663     -0.3257
     65  C66       35.5010   35.5720   20.9180 C.3   663  BCD663      0.2141
     66  O66       35.8430   36.6000   20.2330 O.3   663  BCD663     -0.2176
     67  C17       36.4310   37.9480   23.4690 C.3   663  BCD663      0.2695
     68  C27       36.7870   38.5100   24.8500 C.3   663  BCD663      0.2404
     69  O27       38.1460   38.1530   25.1850 O.3   663  BCD663     -0.2149
     70  C37       35.8610   37.9450   25.9370 C.3   663  BCD663      0.2167
     71  O37       36.0860   38.6400   27.1730 O.3   663  BCD663     -0.2175
     72  C47       34.3970   38.1190   25.5330 C.3   663  BCD663      0.1804
     73  O47       33.6270   37.5170   26.5960 O.3   663  BCD663     -0.3257
     74  C57       34.1620   37.3710   24.1970 C.3   663  BCD663      0.1803
     75  O57       35.0360   38.0060   23.1790 O.3   663  BCD663     -0.3257
     76  C67       32.7200   37.5070   23.6880 C.3   663  BCD663      0.2141
     77  O67       32.4730   38.9020   23.4990 O.3   663  BCD663     -0.2176
@<TRIPOS>BOND
     1     1    73    1
     2     1     9    1
     3     1     2    1
     4     2     4    1
     5     2     3    1
     6     4     6    1
     7     4     5    1
     8     6     8    1
     9     6     7    1
    10     7    12    1
    11     8    10    1
    12     8     9    1
    13    10    11    1
    14    12    20    1
    15    12    13    1
    16    13    15    1
    17    13    14    1
    18    15    17    1
    19    15    16    1
    20    17    19    1
    21    17    18    1
    22    18    23    1
    23    19    21    1
    24    19    20    1
    25    21    22    1
    26    23    31    1
    27    23    24    1
    28    24    26    1
    29    24    25    1
    30    26    28    1
    31    26    27    1
    32    28    29    1
    33    28    30    1
    34    29    34    1
    35    30    32    1
    36    30    31    1
    37    32    33    1
    38    34    42    1
    39    34    35    1
    40    35    37    1
    41    35    36    1
    42    37    39    1
    43    37    38    1
    44    39    40    1
    45    39    41    1
    46    40    45    1
    47    41    43    1
    48    41    42    1
    49    43    44    1
    50    45    53    1
    51    45    46    1
    52    46    48    1
    53    46    47    1
    54    48    50    1
    55    48    49    1
    56    50    52    1
    57    50    51    1
    58    51    56    1
    59    52    54    1
    60    52    53    1
    61    54    55    1
    62    56    64    1
    63    56    57    1
    64    57    58    1
    65    57    59    1
    66    59    61    1
    67    59    60    1
    68    61    63    1
    69    61    62    1
    70    62    67    1
    71    63    64    1
    72    63    65    1
    73    65    66    1
    74    67    75    1
    75    67    68    1
    76    68    69    1
    77    68    70    1
    78    70    72    1
    79    70    71    1
    80    72    74    1
    81    72    73    1
    82    74    75    1
    83    74    76    1
    84    76    77    1
