@<TRIPOS>MOLECULE
./3kak/protein.pdb
 252 241 0 0 0
SMALL
GASTEIGER

@<TRIPOS>ATOM
      1 N          19.2080  -13.0520   50.3950 N.3     1  VAL1       -0.1231
      2 CA         17.9640  -13.7010   50.0320 C.3     1  VAL1        0.1692
      3 C          17.8690  -14.9980   50.8610 C.2     1  VAL1        0.2592
      4 O          18.8640  -15.4550   51.4000 O.2     1  VAL1       -0.2718
      5 CB         17.9220  -14.0110   48.5580 C.3     1  VAL1        0.0266
      6 CG1        17.6090  -12.7760   47.7330 C.3     1  VAL1        0.0020
      7 CG2        19.2570  -14.6210   48.1710 C.3     1  VAL1        0.0020
      8 N          16.6460  -15.5260   50.9970 N.am    2  GLY2       -0.1957
      9 CA         16.4250  -16.8580   51.4800 C.3     2  GLY2        0.1869
     10 C          17.2090  -17.8850   50.6580 C.2     2  GLY2        0.2309
     11 O          17.2450  -17.8880   49.4160 O.2     2  GLY2       -0.2863
     12 N          17.3660  -21.0890   48.8880 N.3     1  LYS1       -0.1245
     13 CA         16.5400  -22.1940   48.3170 C.3     1  LYS1        0.1561
     14 C          16.6700  -23.5250   49.1060 C.2     1  LYS1        0.2260
     15 O          15.7100  -24.3140   49.2440 O.2     1  LYS1       -0.2867
     16 CB         16.8190  -22.3950   46.8200 C.3     1  LYS1        0.0271
     17 CG         17.5780  -21.2070   46.1510 C.3     1  LYS1        0.0035
     18 CD         17.1850  -20.8670   44.6230 C.3     1  LYS1        0.0206
     19 CE         18.3250  -20.0440   43.7830 C.3     1  LYS1        0.1093
     20 NZ         18.4890  -18.5040   44.0010 N.3     1  LYS1       -0.1314
     21 N          23.8950  -14.7540   50.7760 N.3     1  HIS1       -0.1227
     22 CA         24.1820  -13.6140   49.9100 C.3     1  HIS1        0.1749
     23 C          23.5490  -13.9290   48.5910 C.2     1  HIS1        0.2596
     24 O          23.4660  -15.1100   48.2730 O.2     1  HIS1       -0.2718
     25 CB         25.7100  -13.3660   49.7190 C.3     1  HIS1        0.0718
     26 CG         26.4510  -14.5150   49.0890 C.2     1  HIS1        0.0650
     27 ND1        26.7670  -14.5590   47.7430 N.2     1  HIS1       -0.2310
     28 CD2        26.9670  -15.6540   49.6380 C.3     1  HIS1        0.1683
     29 CE1        27.4260  -15.6860   47.4860 C.2     1  HIS1        0.1939
     30 NE2        27.5350  -16.3830   48.6170 N.2     1  HIS1       -0.2440
     31 N          23.0760  -12.9190   47.8520 N.am    2  LEU2       -0.1966
     32 CA         22.7070  -13.0760   46.4340 C.3     2  LEU2        0.1713
     33 C          23.8680  -13.6460   45.6370 C.2     2  LEU2        0.2458
     34 O          25.0190  -13.1750   45.8340 O.2     2  LEU2       -0.2730
     35 CB         22.4040  -11.7170   45.7560 C.3     2  LEU2        0.0310
     36 CG         21.0070  -11.1420   45.6430 C.3     2  LEU2        0.0022
     37 CD1        20.1050  -12.2220   45.0190 C.3     2  LEU2        0.0001
     38 CD2        20.6480  -10.7710   47.0750 C.3     2  LEU2        0.0001
     39 N          23.6190  -14.6590   44.7620 N.am    3  PRO3       -0.2727
     40 CA         24.6770  -15.0500   43.8230 C.3     3  PRO3        0.1402
     41 C          25.1330  -13.8730   42.9640 C.2     3  PRO3        0.2269
     42 O          24.2700  -13.0610   42.4950 O.2     3  PRO3       -0.2865
     43 CB         23.9960  -16.0810   42.9510 C.3     3  PRO3        0.0296
     44 CG         22.9080  -16.6820   43.8700 C.3     3  PRO3        0.0237
     45 CD         22.4230  -15.5030   44.6510 C.3     3  PRO3        0.0939
     46 N          10.6770   -1.9440   33.6360 N.3     1  ARG1       -0.1245
     47 CA         12.0290   -2.2080   33.3390 C.3     1  ARG1        0.1563
     48 C          12.2910   -2.6860   31.9180 C.2     1  ARG1        0.2260
     49 O          11.6570   -3.5700   31.4940 O.2     1  ARG1       -0.2867
     50 CB         12.6570   -3.1760   34.3530 C.3     1  ARG1        0.0307
     51 CG         14.2090   -3.1100   34.2980 C.3     1  ARG1        0.0489
     52 CD         14.8100   -4.1880   35.1600 C.3     1  ARG1        0.2205
     53 NE         14.4880   -5.4690   34.5060 N.pl3   1  ARG1       -0.0865
     54 CZ         14.1440   -6.5940   35.1410 C.cat   1  ARG1        0.5346
     55 NH2        14.0660   -6.6530   36.5030 N.pl3   1  ARG1        0.1354
     56 NH1        13.8440   -7.6730   34.4020 N.pl3   1  ARG1        0.1354
     57 N          15.0750   -4.3260   29.4460 N.3     1  ASP1       -0.1241
     58 CA         16.2520   -5.1190   29.4640 C.3     1  ASP1        0.1616
     59 C          16.8340   -5.0700   28.0740 C.2     1  ASP1        0.2264
     60 O          16.0680   -5.1950   27.0720 O.2     1  ASP1       -0.2867
     61 CB         15.8650   -6.5490   29.8070 C.3     1  ASP1        0.0687
     62 CG         15.3580   -6.6580   31.2090 C.2     1  ASP1        0.0522
     63 OD2        15.6320   -5.7230   31.9640 O.co2   1  ASP1       -0.5491
     64 OD1        14.6890   -7.6500   31.5710 O.co2   1  ASP1       -0.5491
     65 N           9.7630   -5.0220   30.8320 N.3     1  ASN1       -0.1240
     66 CA          8.9520   -5.5350   31.9250 C.3     1  ASN1        0.1653
     67 C           7.9810   -4.4630   32.4500 C.2     1  ASN1        0.2266
     68 O           8.4120   -3.4740   33.0750 O.2     1  ASN1       -0.2867
     69 CB          9.8390   -6.1840   33.0070 C.3     1  ASN1        0.1155
     70 CG         10.8240   -7.1810   32.3970 C.2     1  ASN1        0.2627
     71 OD1        10.4390   -8.2880   31.9570 O.2     1  ASN1       -0.2716
     72 ND2        12.0700   -6.7720   32.2850 N.am    1  ASN1       -0.0877
     73 N           5.4070   -4.9680   34.6630 N.3     1  ILE1       -0.1231
     74 CA          4.7000   -5.4220   35.8520 C.3     1  ILE1        0.1692
     75 C           5.6590   -6.1380   36.7710 C.2     1  ILE1        0.2593
     76 O           6.5540   -6.8320   36.3260 O.2     1  ILE1       -0.2718
     77 CB          3.3900   -6.2010   35.5720 C.3     1  ILE1        0.0266
     78 CG1         2.6180   -6.4270   36.8850 C.3     1  ILE1        0.0019
     79 CG2         3.6710   -7.6040   34.8760 C.3     1  ILE1        0.0020
     80 CD1         1.0450   -6.5410   36.6650 C.3     1  ILE1        0.0001
     81 N           5.5500   -5.8570   38.0650 N.am    2  SER2       -0.1938
     82 CA          6.3390   -6.5090   39.0950 C.3     2  SER2        0.2055
     83 C           7.8460   -6.6840   38.7820 C.2     2  SER2        0.2644
     84 O           8.3870   -7.7820   38.8210 O.2     2  SER2       -0.2714
     85 CB          5.6490   -7.8100   39.5060 C.3     2  SER2        0.2130
     86 OG          6.4830   -8.5710   40.3740 O.3     2  SER2       -0.2179
     87 N           8.5380   -5.5860   38.4870 N.am    3  THR3       -0.1936
     88 CA          9.9520   -5.6870   38.2320 C.3     3  THR3        0.2028
     89 C          10.7890   -5.7650   39.5090 C.2     3  THR3        0.2643
     90 O          10.8270   -4.8350   40.3210 O.2     3  THR3       -0.2714
     91 CB         10.4670   -4.4960   37.4350 C.3     3  THR3        0.1808
     92 OG1        10.1200   -3.3220   38.1540 O.3     3  THR3       -0.2208
     93 CG2         9.8050   -4.4530   36.0630 C.3     3  THR3        0.0379
     94 N          11.4860   -6.8730   39.6500 N.am    4  SER4       -0.1935
     95 CA         12.4530   -7.0480   40.7130 C.3     4  SER4        0.2055
     96 C          13.7590   -6.3900   40.4960 C.2     4  SER4        0.2643
     97 O          14.0740   -5.9290   39.3570 O.2     4  SER4       -0.2714
     98 CB         12.7380   -8.5440   40.8820 C.3     4  SER4        0.2130
     99 OG         11.4730   -9.1580   40.9730 O.3     4  SER4       -0.2179
    100 N          14.5330   -6.3820   41.6020 N.am    5  PHE5       -0.1973
    101 CA         15.9480   -6.0300   41.6080 C.3     5  PHE5        0.1639
    102 C          16.2690   -4.5420   41.5320 C.2     5  PHE5        0.2290
    103 O          17.3730   -4.1780   41.0480 O.2     5  PHE5       -0.2864
    104 CB         16.7920   -6.8920   40.6150 C.3     5  PHE5        0.0560
    105 CG         16.7860   -8.4180   40.9190 C.ar    5  PHE5       -0.0200
    106 CD2        16.4580   -8.9000   42.2080 C.ar    5  PHE5       -0.0042
    107 CD1        17.1040   -9.3320   39.9440 C.ar    5  PHE5       -0.0042
    108 CE2        16.4270  -10.2690   42.5280 C.ar    5  PHE5       -0.0003
    109 CE1        17.0830  -10.7510   40.2370 C.ar    5  PHE5       -0.0003
    110 CZ         16.7220  -11.2180   41.5500 C.ar    5  PHE5       -0.0000
    111 N           4.0680  -12.9150   46.5850 N.3     1  GLN1       -0.1245
    112 CA          3.9140  -14.3300   46.3170 C.3     1  GLN1        0.1566
    113 C           3.8950  -15.0130   47.6000 C.2     1  GLN1        0.2260
    114 O           4.4440  -14.5240   48.5750 O.2     1  GLN1       -0.2867
    115 CB          5.0640  -14.8610   45.4330 C.3     1  GLN1        0.0367
    116 CG          4.9210  -14.2760   44.0000 C.3     1  GLN1        0.0905
    117 CD          5.9820  -14.7890   42.9910 C.2     1  GLN1        0.2608
    118 OE1         5.7080  -14.9020   41.7920 O.2     1  GLN1       -0.2717
    119 NE2         7.1820  -15.0790   43.4750 N.am    1  GLN1       -0.0878
    120 N           5.5260  -17.6780   48.2960 N.3     1  GLU1       -0.1231
    121 CA          6.8920  -18.0580   48.5440 C.3     1  GLU1        0.1697
    122 C           7.7430  -16.9050   48.0620 C.2     1  GLU1        0.2592
    123 O           7.8170  -16.6490   46.8270 O.2     1  GLU1       -0.2718
    124 CB          7.1870  -19.3330   47.7420 C.3     1  GLU1        0.0343
    125 CG          8.0850  -20.3070   48.4610 C.3     1  GLU1        0.0437
    126 CD          7.5490  -20.6800   49.8290 C.2     1  GLU1        0.0504
    127 OE1         6.3900  -21.0720   49.8770 O.co2   1  GLU1       -0.5492
    128 OE2         8.2950  -20.6110   50.8350 O.co2   1  GLU1       -0.5492
    129 N           8.3260  -16.1390   49.0030 N.am    2  GLU2       -0.1966
    130 CA          9.1970  -14.9840   48.6060 C.3     2  GLU2        0.1731
    131 C          10.5980  -14.9110   49.2770 C.2     2  GLU2        0.2616
    132 O          10.8060  -14.2540   50.3680 O.2     2  GLU2       -0.2715
    133 CB          8.3680  -13.7030   48.7060 C.3     2  GLU2        0.0370
    134 CG          8.9220  -12.4390   47.9990 C.3     2  GLU2        0.0440
    135 CD          9.3480  -12.7030   46.5610 C.2     2  GLU2        0.0504
    136 OE1         8.4750  -12.5400   45.6880 O.co2   2  GLU2       -0.5492
    137 OE2        10.5110  -13.1120   46.3200 O.co2   2  GLU2       -0.5492
    138 N          11.5390  -15.6150   48.6620 N.am    3  ARG3       -0.1963
    139 CA         12.9120  -15.5990   49.1230 C.3     3  ARG3        0.1729
    140 C          13.5350  -14.2330   48.9330 C.2     3  ARG3        0.2616
    141 O          14.4160  -13.8530   49.7250 O.2     3  ARG3       -0.2715
    142 CB         13.7410  -16.6580   48.4260 C.3     3  ARG3        0.0348
    143 CG         13.1860  -18.0500   48.6370 C.3     3  ARG3        0.0492
    144 CD         14.1970  -19.0620   48.2530 C.3     3  ARG3        0.2205
    145 NE         14.3860  -19.1720   46.8090 N.pl3   3  ARG3       -0.0865
    146 CZ         15.3740  -18.5830   46.1260 C.cat   3  ARG3        0.5346
    147 NH1        15.4520  -18.8060   44.8340 N.pl3   3  ARG3        0.1354
    148 NH2        16.2780  -17.7700   46.7120 N.pl3   3  ARG3        0.1354
    149 N          13.0570  -13.5000   47.9170 N.am    4  ASN4       -0.1972
    150 CA         13.4810  -12.1050   47.7360 C.3     4  ASN4        0.1688
    151 C          12.6010  -11.1170   48.5520 C.2     4  ASN4        0.2292
    152 O          12.4690   -9.9790   48.1840 O.2     4  ASN4       -0.2864
    153 CB         13.4990  -11.7780   46.2380 C.3     4  ASN4        0.1181
    154 CG         14.1710  -10.4410   45.8860 C.2     4  ASN4        0.2629
    155 OD1        15.2250   -9.9660   46.4640 O.2     4  ASN4       -0.2716
    156 ND2        13.5750   -9.8190   44.8910 N.am    4  ASN4       -0.0877
    157 N          13.9260   -7.2170   49.4650 N.3     1  GLU1       -0.1245
    158 CA         13.8050   -6.0730   48.6010 C.3     1  GLU1        0.1565
    159 C          12.5250   -5.2930   48.9090 C.2     1  GLU1        0.2260
    160 O          12.5390   -4.0470   49.0470 O.2     1  GLU1       -0.2867
    161 CB         13.8260   -6.5360   47.1610 C.3     1  GLU1        0.0329
    162 CG         13.7590   -5.3880   46.1200 C.3     1  GLU1        0.0437
    163 CD         14.2740   -5.8600   44.8500 C.2     1  GLU1        0.0504
    164 OE1        13.6630   -6.7610   44.2130 O.co2   1  GLU1       -0.5492
    165 OE2        15.3660   -5.4450   44.5670 O.co2   1  GLU1       -0.5492
    166 N           3.8900   -6.9570   43.1860 N.3     1  ARG1       -0.1231
    167 CA          5.1190   -7.6850   43.1500 C.3     1  ARG1        0.1694
    168 C           4.7440   -9.2070   43.0050 C.2     1  ARG1        0.2591
    169 O           5.5150  -10.0920   43.4430 O.2     1  ARG1       -0.2718
    170 CB          5.9500   -7.3420   44.4090 C.3     1  ARG1        0.0321
    171 CG          6.5840   -5.9800   44.1510 C.3     1  ARG1        0.0489
    172 CD          7.6240   -5.5790   45.1410 C.3     1  ARG1        0.2205
    173 NE          8.8020   -6.4500   45.0890 N.pl3   1  ARG1       -0.0865
    174 CZ          9.9730   -6.1440   44.5510 C.cat   1  ARG1        0.5346
    175 NH1        10.2310   -4.9590   43.9690 N.pl3   1  ARG1        0.1354
    176 NH2        10.9250   -7.0520   44.6390 N.pl3   1  ARG1        0.1354
    177 N           3.5470   -9.4450   42.4220 N.am    2  ALA2       -0.1980
    178 CA          2.9610  -10.7930   42.1530 C.3     2  ALA2        0.1597
    179 C           1.9290  -10.6540   41.0120 C.2     2  ALA2        0.2287
    180 O           1.6960   -9.5070   40.5290 O.2     2  ALA2       -0.2864
    181 CB          2.2670  -11.3870   43.4430 C.3     2  ALA2        0.0319
    182 N           2.0200  -11.8170   37.8210 N.3     1  TYR1       -0.1241
    183 CA          2.6200  -11.9100   36.5050 C.3     1  TYR1        0.1605
    184 C           2.8440  -13.3850   36.0590 C.2     1  TYR1        0.2264
    185 O           3.2400  -13.6920   34.9350 O.2     1  TYR1       -0.2867
    186 CB          3.9490  -11.2090   36.5330 C.3     1  TYR1        0.0534
    187 CG          4.9500  -11.9210   37.3870 C.ar    1  TYR1       -0.0201
    188 CD1         5.8620  -12.7930   36.8510 C.ar    1  TYR1       -0.0009
    189 CD2         4.9900  -11.7030   38.7840 C.ar    1  TYR1       -0.0009
    190 CE1         6.8200  -13.4690   37.6910 C.ar    1  TYR1        0.0417
    191 CE2         5.9210  -12.3630   39.6200 C.ar    1  TYR1        0.0417
    192 CZ          6.8320  -13.2230   39.0550 C.ar    1  TYR1        0.1957
    193 OH          7.7260  -13.8660   39.8730 O.3     1  TYR1       -0.2866
    194 N          28.9540  -17.8730   44.7770 N.3     1  ARG1       -0.1245
    195 CA         27.6760  -18.4520   45.0480 C.3     1  ARG1        0.1563
    196 C          27.7530  -19.3360   46.2730 C.2     1  ARG1        0.2260
    197 O          28.6550  -20.2010   46.3640 O.2     1  ARG1       -0.2867
    198 CB         27.2960  -19.2780   43.8190 C.3     1  ARG1        0.0307
    199 CG         25.8680  -19.6930   43.7230 C.3     1  ARG1        0.0489
    200 CD         25.7460  -20.5920   42.5010 C.3     1  ARG1        0.2205
    201 NE         25.4020  -19.7970   41.3200 N.pl3   1  ARG1       -0.0865
    202 CZ         24.1700  -19.3090   41.0380 C.cat   1  ARG1        0.5346
    203 NH2        23.0950  -19.5150   41.8410 N.pl3   1  ARG1        0.1354
    204 NH1        24.0070  -18.5990   39.9240 N.pl3   1  ARG1        0.1354
    205 N          19.6510   -2.5520   36.9860 N.3     1  MET1       -0.1245
    206 CA         20.3140   -3.7320   37.5830 C.3     1  MET1        0.1570
    207 C          20.9440   -4.4920   36.4520 C.2     1  MET1        0.2261
    208 O          20.6850   -4.1420   35.2550 O.2     1  MET1       -0.2867
    209 CB         19.3120   -4.5750   38.3220 C.3     1  MET1        0.0387
    210 CG         18.0480   -4.9410   37.5790 C.3     1  MET1        0.0595
    211 SD         18.1080   -6.6410   36.8490 S.3     1  MET1       -0.1393
    212 CE         18.1700   -6.1600   35.1900 C.3     1  MET1        0.0692
    213 N          21.8130   -8.6610   35.3050 N.3     1  ARG1       -0.1245
    214 CA         21.7580  -10.1290   35.4880 C.3     1  ARG1        0.1563
    215 C          22.7460  -10.6620   34.5040 C.2     1  ARG1        0.2260
    216 O          22.7250  -10.3090   33.3300 O.2     1  ARG1       -0.2867
    217 CB         20.3670  -10.6970   35.1570 C.3     1  ARG1        0.0307
    218 CG         19.3180  -10.4070   36.2510 C.3     1  ARG1        0.0489
    219 CD         18.0500  -11.2950   36.1660 C.3     1  ARG1        0.2205
    220 NE         18.2840  -12.6120   36.7930 N.pl3   1  ARG1       -0.0865
    221 CZ         17.4110  -13.6380   36.7990 C.cat   1  ARG1        0.5346
    222 NH1        16.2140  -13.5120   36.1970 N.pl3   1  ARG1        0.1354
    223 NH2        17.7260  -14.7910   37.4210 N.pl3   1  ARG1        0.1354
    224 N          19.6850  -19.5890   38.0940 N.3     1  PHE1       -0.1227
    225 CA         19.4790  -18.6400   36.9950 C.3     1  PHE1        0.1736
    226 C          20.4760  -17.4300   37.0830 C.2     1  PHE1        0.2596
    227 O          20.1160  -16.2560   36.8720 O.2     1  PHE1       -0.2718
    228 CB         18.0030  -18.1790   36.8590 C.3     1  PHE1        0.0547
    229 CG         17.0100  -19.0320   37.6290 C.ar    1  PHE1       -0.0202
    230 CD2        16.6170  -18.6610   38.9380 C.ar    1  PHE1       -0.0042
    231 CD1        16.4910  -20.2170   37.0640 C.ar    1  PHE1       -0.0042
    232 CE2        15.7250  -19.4450   39.6780 C.ar    1  PHE1       -0.0003
    233 CE1        15.5900  -21.0160   37.7810 C.ar    1  PHE1       -0.0003
    234 CZ         15.1990  -20.6260   39.0940 C.ar    1  PHE1       -0.0000
    235 N          21.7310  -17.7900   37.3670 N.am    2  GLY2       -0.1942
    236 CA         22.8500  -16.9150   37.2540 C.3     2  GLY2        0.2014
    237 C          23.0180  -16.0220   38.4440 C.2     2  GLY2        0.2639
    238 O          22.5490  -16.3020   39.5680 O.2     2  GLY2       -0.2714
    239 N          23.6650  -14.9010   38.1730 N.am    3  VAL3       -0.1963
    240 CA         24.0960  -13.9590   39.2000 C.3     3  VAL3        0.1727
    241 C          23.6610  -12.5110   38.9150 C.2     3  VAL3        0.2616
    242 O          23.2380  -12.1670   37.7730 O.2     3  VAL3       -0.2715
    243 CB         25.6640  -14.0910   39.4090 C.3     3  VAL3        0.0290
    244 CG2        26.1090  -15.5920   39.5730 C.3     3  VAL3        0.0023
    245 CG1        26.4940  -13.3490   38.3480 C.3     3  VAL3        0.0023
    246 N          23.7730  -11.6500   39.9450 N.am    4  VAL4       -0.1977
    247 CA         23.5700  -10.1920   39.7130 C.3     4  VAL4        0.1596
    248 C          24.9210   -9.4820   39.4890 C.2     4  VAL4        0.2287
    249 O          25.9920   -9.9820   39.8630 O.2     4  VAL4       -0.2864
    250 CB         22.6770   -9.4920   40.8070 C.3     4  VAL4        0.0276
    251 CG1        21.2640   -9.9200   40.6630 C.3     4  VAL4        0.0022
    252 CG2        23.1320   -9.8020   42.2730 C.3     4  VAL4        0.0022
@<TRIPOS>UNITY_ATOM_ATTR
63 1
charge -1
127 1
charge -1
136 1
charge -1
164 1
charge -1
@<TRIPOS>BOND
     1     1     2    1
     2     2     5    1
     3     2     3    1
     4     3     8   am
     5     3     4    2
     6     5     6    1
     7     5     7    1
     8     8     9    1
     9     9    10    1
    10    10    11    2
    11    12    13    1
    12    13    16    1
    13    13    14    1
    14    14    15    2
    15    16    17    1
    16    17    18    1
    17    18    19    1
    18    19    20    1
    19    21    22    1
    20    22    23    1
    21    22    25    1
    22    23    31   am
    23    23    24    2
    24    25    26    1
    25    26    27    2
    26    26    28    1
    27    27    29    1
    28    28    30    1
    29    29    30    2
    30    31    32    1
    31    32    33    1
    32    32    35    1
    33    33    39   am
    34    33    34    2
    35    35    36    1
    36    36    37    1
    37    36    38    1
    38    39    40    1
    39    39    45    1
    40    40    43    1
    41    40    41    1
    42    41    42    2
    43    43    44    1
    44    44    45    1
    45    46    47    1
    46    47    48    1
    47    47    50    1
    48    48    49    2
    49    50    51    1
    50    51    52    1
    51    52    53    1
    52    53    54    2
    53    54    56    1
    54    54    55    1
    55    57    58    1
    56    58    59    1
    57    58    61    1
    58    59    60    2
    59    61    62    1
    60    62    64   ar
    61    62    63   ar
    62    65    66    1
    63    66    67    1
    64    66    69    1
    65    67    68    2
    66    69    70    1
    67    70    71    2
    68    70    72   am
    69    73    74    1
    70    74    77    1
    71    74    75    1
    72    75    76    2
    73    75    81   am
    74    77    79    1
    75    77    78    1
    76    78    80    1
    77    81    82    1
    78    82    83    1
    79    82    85    1
    80    83    87   am
    81    83    84    2
    82    85    86    1
    83    87    88    1
    84    88    91    1
    85    88    89    1
    86    89    94   am
    87    89    90    2
    88    91    93    1
    89    91    92    1
    90    94    95    1
    91    95    96    1
    92    95    98    1
    93    96    97    2
    94    96   100   am
    95    98    99    1
    96   100   101    1
    97   101   104    1
    98   101   102    1
    99   102   103    2
   100   104   105    1
   101   105   107   ar
   102   105   106   ar
   103   106   108   ar
   104   107   109   ar
   105   108   110   ar
   106   109   110   ar
   107   111   112    1
   108   112   115    1
   109   112   113    1
   110   113   114    2
   111   115   116    1
   112   116   117    1
   113   117   118    2
   114   117   119   am
   115   120   121    1
   116   121   124    1
   117   121   122    1
   118   122   123    2
   119   122   129   am
   120   124   125    1
   121   125   126    1
   122   126   127   ar
   123   126   128   ar
   124   129   130    1
   125   130   133    1
   126   130   131    1
   127   131   138   am
   128   131   132    2
   129   133   134    1
   130   134   135    1
   131   135   136   ar
   132   135   137   ar
   133   138   139    1
   134   139   142    1
   135   139   140    1
   136   140   149   am
   137   140   141    2
   138   142   143    1
   139   143   144    1
   140   144   145    1
   141   145   146    2
   142   146   147    1
   143   146   148    1
   144   149   150    1
   145   150   153    1
   146   150   151    1
   147   151   152    2
   148   153   154    1
   149   154   156   am
   150   154   155    2
   151   157   158    1
   152   158   161    1
   153   158   159    1
   154   159   160    2
   155   161   162    1
   156   162   163    1
   157   163   164   ar
   158   163   165   ar
   159   166   167    1
   160   167   168    1
   161   167   170    1
   162   168   177   am
   163   168   169    2
   164   170   171    1
   165   171   172    1
   166   172   173    1
   167   173   174    2
   168   174   175    1
   169   174   176    1
   170   177   178    1
   171   178   179    1
   172   178   181    1
   173   179   180    2
   174   182   183    1
   175   183   184    1
   176   183   186    1
   177   184   185    2
   178   186   187    1
   179   187   188   ar
   180   187   189   ar
   181   188   190   ar
   182   189   191   ar
   183   190   192   ar
   184   191   192   ar
   185   192   193    1
   186   194   195    1
   187   195   198    1
   188   195   196    1
   189   196   197    2
   190   198   199    1
   191   199   200    1
   192   200   201    1
   193   201   202    2
   194   202   204    1
   195   202   203    1
   196   205   206    1
   197   206   207    1
   198   206   209    1
   199   207   208    2
   200   209   210    1
   201   210   211    1
   202   211   212    1
   203   213   214    1
   204   214   215    1
   205   214   217    1
   206   215   216    2
   207   217   218    1
   208   218   219    1
   209   219   220    1
   210   220   221    2
   211   221   222    1
   212   221   223    1
   213   224   225    1
   214   225   228    1
   215   225   226    1
   216   226   227    2
   217   226   235   am
   218   228   229    1
   219   229   231   ar
   220   229   230   ar
   221   230   232   ar
   222   231   233   ar
   223   232   234   ar
   224   233   234   ar
   225   235   236    1
   226   236   237    1
   227   237   239   am
   228   237   238    2
   229   239   240    1
   230   240   241    1
   231   240   243    1
   232   241   242    2
   233   241   246   am
   234   243   245    1
   235   243   244    1
   236   246   247    1
   237   247   248    1
   238   247   250    1
   239   248   249    2
   240   250   251    1
   241   250   252    1
