@<TRIPOS>MOLECULE
./4phv/ligand.pdb
 92 204 0 0 0
SMALL
GASTEIGER

@<TRIPOS>ATOM
      1  C1        14.2740   23.8800    4.7040 C.3     1  VAC1        0.1367
      2  O2        14.6740   25.1820    4.4070 O.3     1  VAC1       -0.3307
      3  C3        13.0630   23.3670    3.9880 C.3     1  VAC1        0.0838
      4  C4        14.0950   23.7330    6.2420 C.3     1  VAC1        0.0838
      5  C6        15.2770   22.9090    6.7150 C.3     1  VAC1        0.0531
      6  C9        11.9110   24.2230    3.6800 C.3     1  VAC1        0.0531
      7  C12       15.2590   22.8430    8.2380 C.3     1  VAC1        0.0379
      8  C13       15.2450   21.4600    6.2260 C.3     1  VAC1        0.0980
      9  O15       14.1690   20.8740    6.2710 O.3     1  VAC1       -0.3857
     10  C16       16.3550   21.9480    8.7590 C.2     1  VAC1       -0.0241
     11  N19       16.3800   20.9810    5.7720 N.4     1  VAC1        0.4465
     12  C20       16.6070   19.6130    5.3960 C.3     1  VAC1        0.0581
     13  C21       18.0260   19.1690    5.7690 C.3     1  VAC1        0.1198
     14  O22       19.0830   20.0530    5.4600 O.3     1  VAC1       -0.3392
     15  C23       16.4960   19.1910    3.9790 C.2     1  VAC1       -0.0572
     16  C25       17.3700   18.1740    3.7190 C.2     1  VAC1       -0.0284
     17  C26       18.1920   17.8580    4.9290 C.3     1  VAC1        0.1013
     18  C30       10.9560   24.3500    4.8800 C.3     1  VAC1        0.0980
     19  C31       11.0920   23.5370    2.5550 C.3     1  VAC1        0.0379
     20  C33        9.7220   24.1410    2.3520 C.2     1  VAC1       -0.0241
     21  O36       10.7720   23.3470    5.6250 O.3     1  VAC1       -0.3857
     22  C37       17.5020   17.5510    2.4610 C.2     1  VAC1       -0.0124
     23  C38       16.6360   18.0180    1.4850 C.2     1  VAC1       -0.0023
     24  C39       15.7560   19.0840    1.7360 C.2     1  VAC1       -0.0032
     25  C40       15.6460   19.6780    2.9860 C.2     1  VAC1       -0.0230
     26  C45        8.5790   23.5260    2.8330 C.2     1  VAC1       -0.0108
     27  C46        7.3220   24.1070    2.6460 C.2     1  VAC1       -0.0020
     28  C47        7.1770   25.3410    1.9760 C.2     1  VAC1       -0.0003
     29  C48        8.3370   25.9830    1.5050 C.2     1  VAC1       -0.0020
     30  C49        9.5510   25.3390    1.6850 C.2     1  VAC1       -0.0108
     31  C55       17.6910   22.2530    8.5280 C.2     1  VAC1       -0.0108
     32  C56       18.6940   21.3890    9.0150 C.2     1  VAC1       -0.0020
     33  C57       18.3210   20.2390    9.7120 C.2     1  VAC1       -0.0003
     34  C58       16.9610   19.8950    9.9220 C.2     1  VAC1       -0.0020
     35  C59       15.9950   20.7730    9.4240 C.2     1  VAC1       -0.0108
     36  C68        7.4160   27.0590    6.7900 C.3     1  VAC1        0.1013
     37  C69        8.1740   26.6170    5.5020 C.3     1  VAC1        0.1198
     38  O70        8.7470   27.7300    4.7940 O.3     1  VAC1       -0.3392
     39  C71        9.3080   25.7010    6.0440 C.3     1  VAC1        0.0581
     40  C73        9.6460   26.4250    7.3170 C.2     1  VAC1       -0.0572
     41  C76        8.5840   27.1890    7.7290 C.2     1  VAC1       -0.0284
     42  C77       10.8630   26.3550    7.9970 C.2     1  VAC1       -0.0230
     43  C78       10.9630   27.1200    9.1510 C.2     1  VAC1       -0.0032
     44  C79        9.8670   27.8630    9.5950 C.2     1  VAC1       -0.0023
     45  C80        8.6560   27.9530    8.9010 C.2     1  VAC1       -0.0124
     46  N86       10.3560   25.4970    5.0420 N.4     1  VAC1        0.4465
     47  C1        13.8500   24.3240    5.0560 C.3     2  VAC2        0.1367
     48  O2        14.9220   24.8980    4.3550 O.3     2  VAC2       -0.3307
     49  C3        14.1100   23.4790    6.2410 C.3     2  VAC2        0.0838
     50  C4        13.0780   23.4470    4.0020 C.3     2  VAC2        0.0838
     51  C6        11.8210   24.2410    3.6920 C.3     2  VAC2        0.0531
     52  C9        15.4230   22.8710    6.5870 C.3     2  VAC2        0.0531
     53  C12       11.1690   23.5240    2.5250 C.3     2  VAC2        0.0379
     54  C13       10.8620   24.3220    4.8750 C.3     2  VAC2        0.0980
     55  O15       10.6770   23.3590    5.6310 O.3     2  VAC2       -0.3857
     56  C16        9.7750   24.0520    2.3140 C.2     2  VAC2       -0.0241
     57  N19       10.2460   25.4820    5.0240 N.4     2  VAC2        0.4465
     58  C20        9.2330   25.6880    6.0360 C.3     2  VAC2        0.0581
     59  C21        8.1930   26.7270    5.4930 C.3     2  VAC2        0.1198
     60  O22        8.8240   27.7590    4.7040 O.3     2  VAC2       -0.3392
     61  C23        9.6650   26.3270    7.3210 C.2     2  VAC2       -0.0572
     62  C25        8.6910   27.1980    7.7610 C.2     2  VAC2       -0.0284
     63  C26        7.5140   27.2130    6.8020 C.3     2  VAC2        0.1013
     64  C30       15.3690   21.3820    6.2060 C.3     2  VAC2        0.0980
     65  C31       15.4220   22.8420    8.1060 C.3     2  VAC2        0.0379
     66  C33       16.4250   21.9170    8.6940 C.2     2  VAC2       -0.0241
     67  O36       14.2170   20.9390    6.2670 O.3     2  VAC2       -0.3857
     68  C37        8.8450   27.9380    8.9480 C.2     2  VAC2       -0.0124
     69  C38       10.0200   27.7310    9.6690 C.2     2  VAC2       -0.0023
     70  C39       10.9980   26.8610    9.2070 C.2     2  VAC2       -0.0032
     71  C40       10.8270   26.1260    8.0270 C.2     2  VAC2       -0.0230
     72  C45       16.0510   20.7070    9.2930 C.2     2  VAC2       -0.0108
     73  C46       17.0020   19.8720    9.8840 C.2     2  VAC2       -0.0020
     74  C47       18.3530   20.2600    9.8250 C.2     2  VAC2       -0.0003
     75  C48       18.7270   21.4400    9.2020 C.2     2  VAC2       -0.0020
     76  C49       17.7520   22.2740    8.6570 C.2     2  VAC2       -0.0108
     77  C55        9.5760   25.2560    1.6790 C.2     2  VAC2       -0.0108
     78  C56        8.3120   25.7750    1.4850 C.2     2  VAC2       -0.0020
     79  C57        7.2330   25.0280    1.9750 C.2     2  VAC2       -0.0003
     80  C58        7.4360   23.8400    2.6570 C.2     2  VAC2       -0.0020
     81  C59        8.7130   23.3210    2.8350 C.2     2  VAC2       -0.0108
     82  C68       18.1790   17.8130    4.6650 C.3     2  VAC2        0.1013
     83  C69       18.1030   19.0240    5.6440 C.3     2  VAC2        0.1198
     84  O70       19.0480   20.0420    5.3840 O.3     2  VAC2       -0.3392
     85  C71       16.6520   19.4630    5.5290 C.3     2  VAC2        0.0581
     86  C73       16.4180   19.1630    4.0900 C.2     2  VAC2       -0.0572
     87  C76       17.2270   18.1920    3.5780 C.2     2  VAC2       -0.0284
     88  C77       15.4800   19.7390    3.2470 C.2     2  VAC2       -0.0230
     89  C78       15.4030   19.2900    1.9630 C.2     2  VAC2       -0.0032
     90  C79       16.2170   18.2620    1.4450 C.2     2  VAC2       -0.0023
     91  C80       17.1770   17.6750    2.2620 C.2     2  VAC2       -0.0124
     92  N86       16.4990   20.8670    5.8560 N.4     2  VAC2        0.4465
@<TRIPOS>BOND
     1     1     2    1
     2     1     3    1
     3     1     4    1
     4     1    48    1
     5     1    49    1
     6     1    50    1
     7     2    47    1
     8     3     6    1
     9     3    47    1
    10     3    51    1
    11     4     5    1
    12     4    47    1
    13     4    52    1
    14     5     7    1
    15     5     8    1
    16     5    49    1
    17     5    64    1
    18     5    65    1
    19     6    18    1
    20     6    19    1
    21     6    50    1
    22     6    53    1
    23     6    54    1
    24     7    10    1
    25     7    52    1
    26     7    66    1
    27     8     9    1
    28     8    11    1
    29     8    52    1
    30     8    67    1
    31     8    92    1
    32     9    64    1
    33    10    31    1
    34    10    35    1
    35    10    65    1
    36    10    72    1
    37    10    76    2
    38    11    12    1
    39    11    64    1
    40    11    85    1
    41    12    13    1
    42    12    15    1
    43    12    83    1
    44    12    86    1
    45    12    92    1
    46    13    14    1
    47    13    17    1
    48    13    82    1
    49    13    84    1
    50    13    85    1
    51    14    83    1
    52    15    16    1
    53    15    25    1
    54    15    85    1
    55    15    87    1
    56    15    88    2
    57    16    17    1
    58    16    22    2
    59    16    82    1
    60    16    86    1
    61    16    91    1
    62    17    83    1
    63    17    87    1
    64    18    21    1
    65    18    46    1
    66    18    51    1
    67    18    55    1
    68    18    57    1
    69    19    20    1
    70    19    51    1
    71    19    56    1
    72    20    26    1
    73    20    30    1
    74    20    53    1
    75    20    77    1
    76    20    81    2
    77    21    54    1
    78    22    23    1
    79    22    87    1
    80    22    90    1
    81    23    24    1
    82    23    89    2
    83    23    91    1
    84    24    25    1
    85    24    88    1
    86    24    90    2
    87    25    86    2
    88    25    89    1
    89    26    27    1
    90    26    56    1
    91    26    80    2
    92    27    28    1
    93    27    79    2
    94    27    81    1
    95    28    29    2
    96    28    78    1
    97    28    80    1
    98    29    30    1
    99    29    77    1
   100    29    79    1
   101    30    56    2
   102    30    78    1
   103    31    32    1
   104    31    66    1
   105    31    75    2
   106    32    33    1
   107    32    74    2
   108    32    76    1
   109    33    34    2
   110    33    73    1
   111    33    75    1
   112    34    35    1
   113    34    72    1
   114    34    74    1
   115    35    66    2
   116    35    73    1
   117    36    37    1
   118    36    41    1
   119    36    59    1
   120    36    62    1
   121    37    38    1
   122    37    39    1
   123    37    58    1
   124    37    60    1
   125    37    63    1
   126    38    59    1
   127    39    40    1
   128    39    46    1
   129    39    57    1
   130    39    59    1
   131    39    61    1
   132    40    41    1
   133    40    42    1
   134    40    58    1
   135    40    62    1
   136    40    71    2
   137    41    45    1
   138    41    61    2
   139    41    63    1
   140    41    68    1
   141    42    43    1
   142    42    61    1
   143    42    70    2
   144    43    44    1
   145    43    69    2
   146    43    71    1
   147    44    45    1
   148    44    68    2
   149    44    70    1
   150    45    62    2
   151    45    69    1
   152    46    54    1
   153    46    58    1
   154    47    48    1
   155    47    49    1
   156    47    50    1
   157    49    52    1
   158    50    51    1
   159    51    53    1
   160    51    54    1
   161    52    64    1
   162    52    65    1
   163    53    56    1
   164    54    55    1
   165    54    57    1
   166    56    77    1
   167    56    81    1
   168    57    58    1
   169    58    59    1
   170    58    61    1
   171    59    60    1
   172    59    63    1
   173    61    62    1
   174    61    71    1
   175    62    63    1
   176    62    68    1
   177    64    67    1
   178    64    92    1
   179    65    66    1
   180    66    72    1
   181    66    76    1
   182    68    69    1
   183    69    70    1
   184    70    71    1
   185    72    73    2
   186    73    74    1
   187    74    75    1
   188    75    76    1
   189    77    78    2
   190    78    79    1
   191    79    80    1
   192    80    81    1
   193    82    83    1
   194    82    87    1
   195    83    84    1
   196    83    85    1
   197    85    86    1
   198    85    92    1
   199    86    87    1
   200    86    88    1
   201    87    91    2
   202    88    89    1
   203    89    90    1
   204    90    91    1
